C17125-P64
     RDKit          3D

 46 48  0  0  0  0  0  0  0  0999 V2000
    6.9092  -11.9203   25.0752 C   0  0  0  0  0  0  0  0  0  0  0  0
    6.6075  -10.5214   24.8589 N   0  0  0  0  0  0  0  0  0  0  0  0
    5.7210  -11.1950   23.4171 C   0  0  0  0  0  0  0  0  0  0  0  0
    3.8888  -12.0086   22.7572 C   0  0  0  0  0  0  0  0  0  0  0  0
    2.7939  -13.3207   23.6272 C   0  0  0  0  0  0  0  0  0  0  0  0
    1.2616  -14.3768   23.4879 N   0  0  0  0  0  0  0  0  0  0  0  0
    0.3838  -14.2668   24.4868 C   0  0  0  0  0  0  0  0  0  0  0  0
   -0.9500  -14.5998   24.2887 C   0  0  0  0  0  0  0  0  0  0  0  0
   -1.1434  -14.7675   22.9981 N   0  0  0  0  0  0  0  0  0  0  0  0
   -0.0227  -14.4336   22.4349 C   0  0  0  0  0  0  0  0  0  0  0  0
    7.8873   -9.6974   24.9388 C   0  0  0  0  0  0  0  0  0  0  0  0
    8.6325   -9.3914   24.0985 O   0  0  0  0  0  0  0  0  0  0  0  0
    7.8536   -9.3248   26.3326 N   0  0  0  0  0  0  0  0  0  0  0  0
    8.6788   -8.3772   27.0934 C   0  0  0  0  0  0  0  0  0  0  0  0
    9.9363   -7.7605   26.3766 C   0  0  0  0  0  0  0  0  0  0  0  0
    9.7294   -6.5792   25.4729 C   0  0  0  0  0  0  0  0  0  0  0  0
    9.0974   -5.4527   25.7368 N   0  0  0  0  0  0  0  0  0  0  0  0
    9.0465   -4.7751   24.5426 C   0  0  0  0  0  0  0  0  0  0  0  0
    8.3324   -3.6189   24.2126 C   0  0  0  0  0  0  0  0  0  0  0  0
    8.2583   -3.2617   22.8721 C   0  0  0  0  0  0  0  0  0  0  0  0
    8.9329   -4.0121   21.9073 C   0  0  0  0  0  0  0  0  0  0  0  0
    9.7904   -5.0598   22.2297 C   0  0  0  0  0  0  0  0  0  0  0  0
    9.7752   -5.4360   23.5651 C   0  0  0  0  0  0  0  0  0  0  0  0
   10.3063   -6.5136   24.2225 N   0  0  0  0  0  0  0  0  0  0  0  0
    7.5515  -12.3295   24.2973 H   0  0  0  0  0  0  0  0  0  0  0  0
    6.0625  -12.4909   25.4346 H   0  0  0  0  0  0  0  0  0  0  0  0
    7.5766  -11.9563   25.9504 H   0  0  0  0  0  0  0  0  0  0  0  0
    6.5131  -11.2129   22.6626 H   0  0  0  0  0  0  0  0  0  0  0  0
    5.1955  -10.3115   23.1588 H   0  0  0  0  0  0  0  0  0  0  0  0
    3.9926  -12.3131   21.7043 H   0  0  0  0  0  0  0  0  0  0  0  0
    3.2596  -11.1556   22.7934 H   0  0  0  0  0  0  0  0  0  0  0  0
    3.4359  -14.0849   24.0621 H   0  0  0  0  0  0  0  0  0  0  0  0
    2.2736  -12.6704   24.3117 H   0  0  0  0  0  0  0  0  0  0  0  0
    0.8444  -13.7880   25.4322 H   0  0  0  0  0  0  0  0  0  0  0  0
   -1.7899  -14.6768   25.0082 H   0  0  0  0  0  0  0  0  0  0  0  0
    0.4234  -15.1714   21.7683 H   0  0  0  0  0  0  0  0  0  0  0  0
    7.0208   -9.7065   26.7553 H   0  0  0  0  0  0  0  0  0  0  0  0
    9.0156   -8.9327   27.9754 H   0  0  0  0  0  0  0  0  0  0  0  0
    8.0105   -7.5807   27.4370 H   0  0  0  0  0  0  0  0  0  0  0  0
   10.6118   -7.4148   27.1708 H   0  0  0  0  0  0  0  0  0  0  0  0
   10.4719   -8.5577   25.8474 H   0  0  0  0  0  0  0  0  0  0  0  0
    7.7715   -3.0920   24.9749 H   0  0  0  0  0  0  0  0  0  0  0  0
    7.6281   -2.4269   22.5792 H   0  0  0  0  0  0  0  0  0  0  0  0
    8.7762   -3.7694   20.8685 H   0  0  0  0  0  0  0  0  0  0  0  0
   10.3283   -5.6129   21.4708 H   0  0  0  0  0  0  0  0  0  0  0  0
   10.8285   -7.2603   23.7923 H   0  0  0  0  0  0  0  0  0  0  0  0
  1  2  1  0
  2  3  1  0
  3  4  1  0
  4  5  1  0
  5  6  1  0
  6  7  1  0
  7  8  2  0
  8  9  1  0
  9 10  2  0
  2 11  1  0
 11 12  2  0
 11 13  1  0
 13 14  1  0
 14 15  1  0
 15 16  1  0
 16 17  2  0
 17 18  1  0
 18 19  2  0
 19 20  1  0
 20 21  2  0
 21 22  1  0
 22 23  2  0
 23 24  1  0
 10  6  1  0
 24 16  1  0
 23 18  1  0
  1 25  1  0
  1 26  1  0
  1 27  1  0
  3 28  1  0
  3 29  1  0
  4 30  1  0
  4 31  1  0
  5 32  1  0
  5 33  1  0
  7 34  1  0
  8 35  1  0
 10 36  1  0
 13 37  1  0
 14 38  1  0
 14 39  1  0
 15 40  1  0
 15 41  1  0
 19 42  1  0
 20 43  1  0
 21 44  1  0
 22 45  1  0
 24 46  1  0
M  END
>  <Energy>  (1) 
355.1185939296937

>  <compound_id>  (1) 
17125

>  <target_id>  (1) 
1

>  <reference_id>  (1) 
64

>  <inspiration_ids>  (1) 
[64, 55]

>  <energy_score>  (1) 
391.99989236012493

>  <distance_score>  (1) 
14.19240400957376

>  <path>  (1) 
/opt/xchem-fragalysis-2/maxwin/BulkDock/SCRATCH/511014/C17125-P64/C17125-P64.minimised.mol

>  <scratch_subdir>  (1) 
/opt/xchem-fragalysis-2/maxwin/BulkDock/SCRATCH/511014/C17125-P64

>  <fragmenstein_runtime>  (1) 
28.52590584754944

>  <fragmenstein_outcome>  (1) 
too moved

>  <fragmenstein_mode>  (1) 
expansion

>  <fragmenstein_error>  (1) 


$$$$
C17125-P55
     RDKit          3D

 46 48  0  0  0  0  0  0  0  0999 V2000
    7.4524  -12.4263   26.1249 C   0  0  0  0  0  0  0  0  0  0  0  0
    7.9145  -11.5046   27.1635 N   0  0  0  0  0  0  0  0  0  0  0  0
    6.6471  -12.1137   27.9524 C   0  0  0  0  0  0  0  0  0  0  0  0
    6.0574  -13.6357   28.0206 C   0  0  0  0  0  0  0  0  0  0  0  0
    4.8575  -13.8395   29.0353 C   0  0  0  0  0  0  0  0  0  0  0  0
    3.8730  -14.9336   28.8482 N   0  0  0  0  0  0  0  0  0  0  0  0
    4.1176  -16.2784   28.7049 C   0  0  0  0  0  0  0  0  0  0  0  0
    2.8921  -16.9098   28.8017 C   0  0  0  0  0  0  0  0  0  0  0  0
    1.8968  -15.9967   29.0091 N   0  0  0  0  0  0  0  0  0  0  0  0
    2.5050  -14.8276   29.0294 C   0  0  0  0  0  0  0  0  0  0  0  0
    8.1314  -10.1172   26.5689 C   0  0  0  0  0  0  0  0  0  0  0  0
    7.3887   -9.2087   26.4754 O   0  0  0  0  0  0  0  0  0  0  0  0
    9.5124  -10.2829   26.0573 N   0  0  0  0  0  0  0  0  0  0  0  0
   10.3402   -9.4036   25.1919 C   0  0  0  0  0  0  0  0  0  0  0  0
   10.3163   -7.8457   25.2489 C   0  0  0  0  0  0  0  0  0  0  0  0
   11.1521   -7.1611   24.1619 C   0  0  0  0  0  0  0  0  0  0  0  0
   10.8067   -6.0856   23.4746 N   0  0  0  0  0  0  0  0  0  0  0  0
   11.8562   -5.8046   22.6308 C   0  0  0  0  0  0  0  0  0  0  0  0
   12.0231   -4.7694   21.7100 C   0  0  0  0  0  0  0  0  0  0  0  0
   13.1960   -4.6939   20.9485 C   0  0  0  0  0  0  0  0  0  0  0  0
   14.2036   -5.6398   21.1167 C   0  0  0  0  0  0  0  0  0  0  0  0
   14.0648   -6.6838   22.0427 C   0  0  0  0  0  0  0  0  0  0  0  0
   12.8757   -6.7290   22.7824 C   0  0  0  0  0  0  0  0  0  0  0  0
   12.4186   -7.5608   23.7785 N   0  0  0  0  0  0  0  0  0  0  0  0
    7.7360  -13.4578   26.3611 H   0  0  0  0  0  0  0  0  0  0  0  0
    6.4364  -12.2525   25.7562 H   0  0  0  0  0  0  0  0  0  0  0  0
    8.0564  -12.2225   25.2276 H   0  0  0  0  0  0  0  0  0  0  0  0
    6.9218  -11.8760   28.9904 H   0  0  0  0  0  0  0  0  0  0  0  0
    5.8248  -11.4183   27.7423 H   0  0  0  0  0  0  0  0  0  0  0  0
    5.6987  -13.9502   27.0346 H   0  0  0  0  0  0  0  0  0  0  0  0
    6.8712  -14.3145   28.3027 H   0  0  0  0  0  0  0  0  0  0  0  0
    4.2686  -12.9179   29.0832 H   0  0  0  0  0  0  0  0  0  0  0  0
    5.2729  -14.0003   30.0380 H   0  0  0  0  0  0  0  0  0  0  0  0
    5.1161  -16.6698   28.5723 H   0  0  0  0  0  0  0  0  0  0  0  0
    2.6836  -17.9702   28.7413 H   0  0  0  0  0  0  0  0  0  0  0  0
    2.0166  -13.8748   29.1854 H   0  0  0  0  0  0  0  0  0  0  0  0
    9.8877  -11.1611   26.3916 H   0  0  0  0  0  0  0  0  0  0  0  0
   11.3699   -9.7390   25.3658 H   0  0  0  0  0  0  0  0  0  0  0  0
   10.0945   -9.7143   24.1711 H   0  0  0  0  0  0  0  0  0  0  0  0
    9.2812   -7.4961   25.1682 H   0  0  0  0  0  0  0  0  0  0  0  0
   10.6838   -7.5185   26.2285 H   0  0  0  0  0  0  0  0  0  0  0  0
   11.2366   -4.0386   21.6119 H   0  0  0  0  0  0  0  0  0  0  0  0
   13.3120   -3.8799   20.2380 H   0  0  0  0  0  0  0  0  0  0  0  0
   15.1169   -5.5597   20.5318 H   0  0  0  0  0  0  0  0  0  0  0  0
   14.8560   -7.4117   22.1861 H   0  0  0  0  0  0  0  0  0  0  0  0
   12.9380   -8.3295   24.1738 H   0  0  0  0  0  0  0  0  0  0  0  0
  1  2  1  0
  2  3  1  0
  3  4  1  0
  4  5  1  0
  5  6  1  0
  6  7  1  0
  7  8  2  0
  8  9  1  0
  9 10  2  0
  2 11  1  0
 11 12  2  0
 11 13  1  0
 13 14  1  0
 14 15  1  0
 15 16  1  0
 16 17  2  0
 17 18  1  0
 18 19  2  0
 19 20  1  0
 20 21  2  0
 21 22  1  0
 22 23  2  0
 23 24  1  0
 10  6  1  0
 24 16  1  0
 23 18  1  0
  1 25  1  0
  1 26  1  0
  1 27  1  0
  3 28  1  0
  3 29  1  0
  4 30  1  0
  4 31  1  0
  5 32  1  0
  5 33  1  0
  7 34  1  0
  8 35  1  0
 10 36  1  0
 13 37  1  0
 14 38  1  0
 14 39  1  0
 15 40  1  0
 15 41  1  0
 19 42  1  0
 20 43  1  0
 21 44  1  0
 22 45  1  0
 24 46  1  0
M  END
>  <Energy>  (2) 
49.153364777207692

>  <compound_id>  (2) 
17125

>  <target_id>  (2) 
1

>  <reference_id>  (2) 
55

>  <inspiration_ids>  (2) 
[64, 55]

>  <energy_score>  (2) 
86.03466320764335

>  <distance_score>  (2) 
14.27248789812739

>  <path>  (2) 
/opt/xchem-fragalysis-2/maxwin/BulkDock/SCRATCH/511014/C17125-P55/C17125-P55.minimised.mol

>  <scratch_subdir>  (2) 
/opt/xchem-fragalysis-2/maxwin/BulkDock/SCRATCH/511014/C17125-P55

>  <fragmenstein_runtime>  (2) 
27.022670030593872

>  <fragmenstein_outcome>  (2) 
too moved

>  <fragmenstein_mode>  (2) 
expansion

>  <fragmenstein_error>  (2) 


$$$$
C11097-P2
     RDKit          3D

 42 44  0  0  0  0  0  0  0  0999 V2000
    4.3268  -21.1550    6.8214 C   0  0  0  0  0  0  0  0  0  0  0  0
    3.6798  -19.8582    7.3110 C   0  0  0  0  0  0  0  0  0  0  0  0
    2.3303  -20.0731    8.1169 C   0  0  0  0  0  0  0  0  0  0  0  0
    1.3278  -21.0068    7.4776 N   0  0  0  0  0  0  0  0  0  0  0  0
    1.4981  -22.3650    8.0207 C   0  0  0  0  0  0  0  0  0  0  0  0
   -0.1097  -20.5798    7.7148 C   0  0  0  0  0  0  0  0  0  0  0  0
   -1.2025  -21.4045    7.0437 C   0  0  0  0  0  0  0  0  0  0  0  0
   -1.8910  -21.1556    5.9362 N   0  0  0  0  0  0  0  0  0  0  0  0
   -2.7900  -22.1939    5.8629 C   0  0  0  0  0  0  0  0  0  0  0  0
   -3.8070  -22.4787    4.9374 C   0  0  0  0  0  0  0  0  0  0  0  0
   -4.6160  -23.6067    5.1617 C   0  0  0  0  0  0  0  0  0  0  0  0
   -4.3961  -24.4491    6.2590 C   0  0  0  0  0  0  0  0  0  0  0  0
   -3.3677  -24.1925    7.1746 C   0  0  0  0  0  0  0  0  0  0  0  0
   -2.6163  -23.0449    6.9405 C   0  0  0  0  0  0  0  0  0  0  0  0
   -1.6054  -22.5457    7.7070 O   0  0  0  0  0  0  0  0  0  0  0  0
    4.7605  -19.0571    7.9556 N   0  0  0  0  0  0  0  0  0  0  0  0
    5.6311  -18.0373    7.4177 C   0  0  0  0  0  0  0  0  0  0  0  0
    5.6507  -17.5215    6.3399 O   0  0  0  0  0  0  0  0  0  0  0  0
    6.7680  -17.6142    8.3121 C   0  0  0  0  0  0  0  0  0  0  0  0
    7.5302  -16.4467    8.1924 C   0  0  0  0  0  0  0  0  0  0  0  0
    8.7113  -16.4110    8.9866 C   0  0  0  0  0  0  0  0  0  0  0  0
    8.8352  -17.5676    9.7171 C   0  0  0  0  0  0  0  0  0  0  0  0
    7.4671  -18.6006    9.5250 S   0  0  0  0  0  0  0  0  0  0  0  0
    4.6338  -21.7832    7.6642 H   0  0  0  0  0  0  0  0  0  0  0  0
    3.6539  -21.7252    6.1745 H   0  0  0  0  0  0  0  0  0  0  0  0
    5.2279  -20.9414    6.2342 H   0  0  0  0  0  0  0  0  0  0  0  0
    3.4108  -19.2894    6.4106 H   0  0  0  0  0  0  0  0  0  0  0  0
    1.8794  -19.0768    8.2157 H   0  0  0  0  0  0  0  0  0  0  0  0
    2.5593  -20.3951    9.1412 H   0  0  0  0  0  0  0  0  0  0  0  0
    2.5371  -22.6995    7.9761 H   0  0  0  0  0  0  0  0  0  0  0  0
    1.1786  -22.4318    9.0674 H   0  0  0  0  0  0  0  0  0  0  0  0
    0.9312  -23.0930    7.4317 H   0  0  0  0  0  0  0  0  0  0  0  0
   -0.3066  -20.5658    8.7927 H   0  0  0  0  0  0  0  0  0  0  0  0
   -0.2192  -19.5531    7.3446 H   0  0  0  0  0  0  0  0  0  0  0  0
   -3.9659  -21.8292    4.0841 H   0  0  0  0  0  0  0  0  0  0  0  0
   -5.4132  -23.8376    4.4576 H   0  0  0  0  0  0  0  0  0  0  0  0
   -5.0248  -25.3273    6.3951 H   0  0  0  0  0  0  0  0  0  0  0  0
   -3.1756  -24.8265    8.0311 H   0  0  0  0  0  0  0  0  0  0  0  0
    5.0865  -19.3157    8.8803 H   0  0  0  0  0  0  0  0  0  0  0  0
    7.2978  -15.6647    7.4849 H   0  0  0  0  0  0  0  0  0  0  0  0
    9.4355  -15.6029    8.9812 H   0  0  0  0  0  0  0  0  0  0  0  0
    9.6361  -17.8506   10.3874 H   0  0  0  0  0  0  0  0  0  0  0  0
  1  2  1  0
  2  3  1  0
  3  4  1  0
  4  5  1  0
  4  6  1  0
  6  7  1  0
  7  8  2  0
  8  9  1  0
  9 10  2  0
 10 11  1  0
 11 12  2  0
 12 13  1  0
 13 14  2  0
 14 15  1  0
  2 16  1  0
 16 17  1  0
 17 18  2  0
 17 19  1  0
 19 20  2  0
 20 21  1  0
 21 22  2  0
 22 23  1  0
 15  7  1  0
 23 19  1  0
 14  9  1  0
  1 24  1  0
  1 25  1  0
  1 26  1  0
  2 27  1  0
  3 28  1  0
  3 29  1  0
  5 30  1  0
  5 31  1  0
  5 32  1  0
  6 33  1  0
  6 34  1  0
 10 35  1  0
 11 36  1  0
 12 37  1  0
 13 38  1  0
 16 39  1  0
 20 40  1  0
 21 41  1  0
 22 42  1  0
M  END
>  <Energy>  (3) 
80.740897437085337

>  <compound_id>  (3) 
11097

>  <target_id>  (3) 
1

>  <reference_id>  (3) 
2

>  <inspiration_ids>  (3) 
[2, 66]

>  <energy_score>  (3) 
-34.33020333194369

>  <distance_score>  (3) 
14.210978075691433

>  <path>  (3) 
/opt/xchem-fragalysis-2/maxwin/BulkDock/SCRATCH/511014/C11097-P2/C11097-P2.minimised.mol

>  <scratch_subdir>  (3) 
/opt/xchem-fragalysis-2/maxwin/BulkDock/SCRATCH/511014/C11097-P2

>  <fragmenstein_runtime>  (3) 
21.075181484222412

>  <fragmenstein_outcome>  (3) 
too moved

>  <fragmenstein_mode>  (3) 
expansion

>  <fragmenstein_error>  (3) 


$$$$
C11097-P66
     RDKit          3D

 42 44  0  0  0  0  0  0  0  0999 V2000
    0.3058  -13.0455   12.8022 C   0  0  0  0  0  0  0  0  0  0  0  0
    0.5135  -12.6680   11.3206 C   0  0  0  0  0  0  0  0  0  0  0  0
   -0.5327  -14.1526   10.5294 C   0  0  0  0  0  0  0  0  0  0  0  0
   -1.3045  -15.8108   10.3227 N   0  0  0  0  0  0  0  0  0  0  0  0
   -0.2283  -16.8215   10.4814 C   0  0  0  0  0  0  0  0  0  0  0  0
   -2.1291  -16.3439    8.9311 C   0  0  0  0  0  0  0  0  0  0  0  0
   -3.5126  -17.3621    8.5751 C   0  0  0  0  0  0  0  0  0  0  0  0
   -4.6584  -16.8609    8.0920 N   0  0  0  0  0  0  0  0  0  0  0  0
   -6.3612  -17.5717    8.3489 C   0  0  0  0  0  0  0  0  0  0  0  0
   -7.6039  -18.1040    7.9353 C   0  0  0  0  0  0  0  0  0  0  0  0
   -8.4559  -19.4811    8.2148 C   0  0  0  0  0  0  0  0  0  0  0  0
   -8.2704  -20.1481    9.3852 C   0  0  0  0  0  0  0  0  0  0  0  0
   -7.1557  -19.4788   10.0998 C   0  0  0  0  0  0  0  0  0  0  0  0
   -6.0402  -18.4069    9.3062 C   0  0  0  0  0  0  0  0  0  0  0  0
   -4.1531  -18.6340    9.1462 O   0  0  0  0  0  0  0  0  0  0  0  0
    1.1721  -10.9430   11.5647 N   0  0  0  0  0  0  0  0  0  0  0  0
    1.0191   -9.5043   10.6166 C   0  0  0  0  0  0  0  0  0  0  0  0
    0.4946   -9.4905    9.5694 O   0  0  0  0  0  0  0  0  0  0  0  0
    1.4586   -7.7756   11.0955 C   0  0  0  0  0  0  0  0  0  0  0  0
    2.5355   -6.9935   11.5157 C   0  0  0  0  0  0  0  0  0  0  0  0
    2.4151   -5.5366   11.7263 C   0  0  0  0  0  0  0  0  0  0  0  0
    1.2288   -5.0688   11.2716 C   0  0  0  0  0  0  0  0  0  0  0  0
    0.3668   -6.2685   10.4387 S   0  0  0  0  0  0  0  0  0  0  0  0
    0.2211  -14.1150   12.9781 H   0  0  0  0  0  0  0  0  0  0  0  0
   -0.5126  -12.4858   13.1777 H   0  0  0  0  0  0  0  0  0  0  0  0
    0.9989  -12.6803   13.5404 H   0  0  0  0  0  0  0  0  0  0  0  0
    1.4761  -13.0185   10.9918 H   0  0  0  0  0  0  0  0  0  0  0  0
    0.4278  -14.6835   10.4637 H   0  0  0  0  0  0  0  0  0  0  0  0
   -0.9276  -14.3533   11.4971 H   0  0  0  0  0  0  0  0  0  0  0  0
   -0.6607  -17.8247   10.5574 H   0  0  0  0  0  0  0  0  0  0  0  0
    0.4640  -16.8090    9.6331 H   0  0  0  0  0  0  0  0  0  0  0  0
    0.3535  -16.6451   11.3902 H   0  0  0  0  0  0  0  0  0  0  0  0
   -2.5763  -15.3964    8.6262 H   0  0  0  0  0  0  0  0  0  0  0  0
   -1.3794  -16.6460    8.1918 H   0  0  0  0  0  0  0  0  0  0  0  0
   -7.6964  -17.8825    6.9269 H   0  0  0  0  0  0  0  0  0  0  0  0
   -9.2148  -19.7957    7.5055 H   0  0  0  0  0  0  0  0  0  0  0  0
   -8.8738  -20.9343    9.7995 H   0  0  0  0  0  0  0  0  0  0  0  0
   -6.9184  -19.5858   11.1638 H   0  0  0  0  0  0  0  0  0  0  0  0
    1.7255  -10.7375   12.3768 H   0  0  0  0  0  0  0  0  0  0  0  0
    3.4821   -7.4754   11.7123 H   0  0  0  0  0  0  0  0  0  0  0  0
    3.2049   -4.9189   12.1379 H   0  0  0  0  0  0  0  0  0  0  0  0
    0.8736   -4.0476   11.2692 H   0  0  0  0  0  0  0  0  0  0  0  0
  1  2  1  0
  2  3  1  0
  3  4  1  0
  4  5  1  0
  4  6  1  0
  6  7  1  0
  7  8  2  0
  8  9  1  0
  9 10  2  0
 10 11  1  0
 11 12  2  0
 12 13  1  0
 13 14  2  0
 14 15  1  0
  2 16  1  0
 16 17  1  0
 17 18  2  0
 17 19  1  0
 19 20  2  0
 20 21  1  0
 21 22  2  0
 22 23  1  0
 15  7  1  0
 23 19  1  0
 14  9  1  0
  1 24  1  0
  1 25  1  0
  1 26  1  0
  2 27  1  0
  3 28  1  0
  3 29  1  0
  5 30  1  0
  5 31  1  0
  5 32  1  0
  6 33  1  0
  6 34  1  0
 10 35  1  0
 11 36  1  0
 12 37  1  0
 13 38  1  0
 16 39  1  0
 20 40  1  0
 21 41  1  0
 22 42  1  0
M  END
>  <Energy>  (4) 
792.01740451547028

>  <compound_id>  (4) 
11097

>  <target_id>  (4) 
1

>  <reference_id>  (4) 
66

>  <inspiration_ids>  (4) 
[2, 66]

>  <energy_score>  (4) 
676.9463037464429

>  <distance_score>  (4) 
11.012622038504965

>  <path>  (4) 
/opt/xchem-fragalysis-2/maxwin/BulkDock/SCRATCH/511014/C11097-P66/C11097-P66.minimised.mol

>  <scratch_subdir>  (4) 
/opt/xchem-fragalysis-2/maxwin/BulkDock/SCRATCH/511014/C11097-P66

>  <fragmenstein_runtime>  (4) 
24.04727840423584

>  <fragmenstein_outcome>  (4) 
too moved

>  <fragmenstein_mode>  (4) 
expansion

>  <fragmenstein_error>  (4) 


$$$$
C11098-P2
     RDKit          3D

 42 44  0  0  0  0  0  0  0  0999 V2000
    4.7369   -7.6324   13.3731 C   0  0  0  0  0  0  0  0  0  0  0  0
    6.1715   -8.0455   13.9676 C   0  0  0  0  0  0  0  0  0  0  0  0
    4.6115   -9.7949   13.8068 C   0  0  0  0  0  0  0  0  0  0  0  0
    2.7159  -10.8381   13.4113 N   0  0  0  0  0  0  0  0  0  0  0  0
    1.4978  -12.1280   14.3249 C   0  0  0  0  0  0  0  0  0  0  0  0
    1.0553  -11.5608   12.2618 C   0  0  0  0  0  0  0  0  0  0  0  0
   -0.2997  -13.1987   12.5402 C   0  0  0  0  0  0  0  0  0  0  0  0
   -1.4920  -13.7301   13.5799 N   0  0  0  0  0  0  0  0  0  0  0  0
   -3.4520  -14.0403   13.0397 C   0  0  0  0  0  0  0  0  0  0  0  0
   -5.0924  -14.7546   12.9391 C   0  0  0  0  0  0  0  0  0  0  0  0
   -5.5786  -16.2788   13.6241 C   0  0  0  0  0  0  0  0  0  0  0  0
   -4.6401  -16.7052   14.4512 C   0  0  0  0  0  0  0  0  0  0  0  0
   -4.5813  -16.8606   15.7826 F   0  0  0  0  0  0  0  0  0  0  0  0
   -3.6551  -16.1368   13.8115 C   0  0  0  0  0  0  0  0  0  0  0  0
   -3.1403  -15.0356   12.1844 C   0  0  0  0  0  0  0  0  0  0  0  0
   -1.4110  -14.4303   11.6521 O   0  0  0  0  0  0  0  0  0  0  0  0
    8.1237   -7.0684   14.4853 N   0  0  0  0  0  0  0  0  0  0  0  0
    8.8086   -5.0696   14.5799 C   0  0  0  0  0  0  0  0  0  0  0  0
    8.0968   -3.7518   14.4202 O   0  0  0  0  0  0  0  0  0  0  0  0
   10.6211   -4.6985   14.7512 C   0  0  0  0  0  0  0  0  0  0  0  0
   11.2397   -3.7156   13.9062 C   0  0  0  0  0  0  0  0  0  0  0  0
   12.0633   -2.6960   14.4744 C   0  0  0  0  0  0  0  0  0  0  0  0
   12.3186   -2.9304   15.7869 C   0  0  0  0  0  0  0  0  0  0  0  0
   11.5759   -4.3414   16.3298 S   0  0  0  0  0  0  0  0  0  0  0  0
    4.5835   -6.9857   12.4577 H   0  0  0  0  0  0  0  0  0  0  0  0
    4.0639   -8.3067   12.9366 H   0  0  0  0  0  0  0  0  0  0  0  0
    4.0665   -7.3500   14.1908 H   0  0  0  0  0  0  0  0  0  0  0  0
    6.3270   -7.6761   14.9522 H   0  0  0  0  0  0  0  0  0  0  0  0
    4.7370  -10.4595   14.6615 H   0  0  0  0  0  0  0  0  0  0  0  0
    5.1638  -10.6035   13.2748 H   0  0  0  0  0  0  0  0  0  0  0  0
    0.4896  -12.1126   14.0114 H   0  0  0  0  0  0  0  0  0  0  0  0
    1.4801  -13.1307   13.8808 H   0  0  0  0  0  0  0  0  0  0  0  0
    1.8480  -12.4663   15.3182 H   0  0  0  0  0  0  0  0  0  0  0  0
    0.3943  -10.7321   11.9792 H   0  0  0  0  0  0  0  0  0  0  0  0
    1.5270  -11.7695   11.2803 H   0  0  0  0  0  0  0  0  0  0  0  0
   -5.6695  -14.8230   12.0175 H   0  0  0  0  0  0  0  0  0  0  0  0
   -6.2654  -16.9982   13.2159 H   0  0  0  0  0  0  0  0  0  0  0  0
   -2.9588  -16.0732   14.7998 H   0  0  0  0  0  0  0  0  0  0  0  0
    8.8622   -7.7044   14.7224 H   0  0  0  0  0  0  0  0  0  0  0  0
   11.0504   -3.6773   12.8537 H   0  0  0  0  0  0  0  0  0  0  0  0
   12.4793   -1.8704   13.9109 H   0  0  0  0  0  0  0  0  0  0  0  0
   12.9449   -2.3525   16.4515 H   0  0  0  0  0  0  0  0  0  0  0  0
  1  2  1  0
  2  3  1  0
  3  4  1  0
  4  5  1  0
  4  6  1  0
  6  7  1  0
  7  8  2  0
  8  9  1  0
  9 10  2  0
 10 11  1  0
 11 12  2  0
 12 13  1  0
 12 14  1  0
 14 15  2  0
 15 16  1  0
  2 17  1  0
 17 18  1  0
 18 19  2  0
 18 20  1  0
 20 21  2  0
 21 22  1  0
 22 23  2  0
 23 24  1  0
 16  7  1  0
 24 20  1  0
 15  9  1  0
  1 25  1  0
  1 26  1  0
  1 27  1  0
  2 28  1  0
  3 29  1  0
  3 30  1  0
  5 31  1  0
  5 32  1  0
  5 33  1  0
  6 34  1  0
  6 35  1  0
 10 36  1  0
 11 37  1  0
 14 38  1  0
 17 39  1  0
 21 40  1  0
 22 41  1  0
 23 42  1  0
M  END
>  <Energy>  (5) 
2651.5541625329288

>  <compound_id>  (5) 
11098

>  <target_id>  (5) 
1

>  <reference_id>  (5) 
2

>  <inspiration_ids>  (5) 
[2, 66]

>  <energy_score>  (5) 
2560.4720174367335

>  <distance_score>  (5) 
9.090456034334395

>  <path>  (5) 
/opt/xchem-fragalysis-2/maxwin/BulkDock/SCRATCH/511014/C11098-P2/C11098-P2.minimised.mol

>  <scratch_subdir>  (5) 
/opt/xchem-fragalysis-2/maxwin/BulkDock/SCRATCH/511014/C11098-P2

>  <fragmenstein_runtime>  (5) 
16.309171676635742

>  <fragmenstein_outcome>  (5) 
too moved

>  <fragmenstein_mode>  (5) 
expansion

>  <fragmenstein_error>  (5) 


$$$$
C11098-P66
     RDKit          3D

 42 44  0  0  0  0  0  0  0  0999 V2000
    6.1139   -8.3184    7.9488 C   0  0  0  0  0  0  0  0  0  0  0  0
    6.3752   -9.8231    8.0193 C   0  0  0  0  0  0  0  0  0  0  0  0
    4.8615  -10.9297    8.6305 C   0  0  0  0  0  0  0  0  0  0  0  0
    3.4063  -11.4377    9.5989 N   0  0  0  0  0  0  0  0  0  0  0  0
    3.0178  -10.5538   10.6392 C   0  0  0  0  0  0  0  0  0  0  0  0
    2.9417  -12.8861   10.2355 C   0  0  0  0  0  0  0  0  0  0  0  0
    1.2442  -13.8322   10.7615 C   0  0  0  0  0  0  0  0  0  0  0  0
   -0.0617  -13.8058   11.0449 N   0  0  0  0  0  0  0  0  0  0  0  0
   -0.6254  -15.1079   10.5311 C   0  0  0  0  0  0  0  0  0  0  0  0
   -1.8470  -15.4693    9.8616 C   0  0  0  0  0  0  0  0  0  0  0  0
   -1.9259  -16.6279    9.0248 C   0  0  0  0  0  0  0  0  0  0  0  0
   -0.8832  -17.5409    9.0065 C   0  0  0  0  0  0  0  0  0  0  0  0
   -0.9812  -18.6439    8.2548 F   0  0  0  0  0  0  0  0  0  0  0  0
    0.2976  -17.2789    9.6934 C   0  0  0  0  0  0  0  0  0  0  0  0
    0.3784  -16.0093   10.2909 C   0  0  0  0  0  0  0  0  0  0  0  0
    1.5100  -15.2910   10.3297 O   0  0  0  0  0  0  0  0  0  0  0  0
    7.8233   -9.7742    8.3467 N   0  0  0  0  0  0  0  0  0  0  0  0
    8.9497  -10.4009    7.7266 C   0  0  0  0  0  0  0  0  0  0  0  0
    9.0080  -11.1905    6.8321 O   0  0  0  0  0  0  0  0  0  0  0  0
   10.1660   -9.8314    8.3553 C   0  0  0  0  0  0  0  0  0  0  0  0
   11.2336  -10.4652    8.9611 C   0  0  0  0  0  0  0  0  0  0  0  0
   12.1605   -9.5507    9.5572 C   0  0  0  0  0  0  0  0  0  0  0  0
   11.7946   -8.2397    9.3622 C   0  0  0  0  0  0  0  0  0  0  0  0
   10.3477   -8.1173    8.4630 S   0  0  0  0  0  0  0  0  0  0  0  0
    6.7655   -7.6911    8.5705 H   0  0  0  0  0  0  0  0  0  0  0  0
    5.1367   -8.2104    8.3444 H   0  0  0  0  0  0  0  0  0  0  0  0
    6.2269   -7.9289    6.9320 H   0  0  0  0  0  0  0  0  0  0  0  0
    6.6450  -10.0544    7.0143 H   0  0  0  0  0  0  0  0  0  0  0  0
    4.1366  -10.6595    7.9306 H   0  0  0  0  0  0  0  0  0  0  0  0
    5.2956  -11.9038    8.5477 H   0  0  0  0  0  0  0  0  0  0  0  0
    1.9646  -10.2609   10.6587 H   0  0  0  0  0  0  0  0  0  0  0  0
    3.1578  -10.9265   11.6177 H   0  0  0  0  0  0  0  0  0  0  0  0
    3.6534   -9.7201   10.5135 H   0  0  0  0  0  0  0  0  0  0  0  0
    3.6864  -12.9566   11.0013 H   0  0  0  0  0  0  0  0  0  0  0  0
    3.4283  -13.6079    9.5377 H   0  0  0  0  0  0  0  0  0  0  0  0
   -2.6944  -14.8146    9.8203 H   0  0  0  0  0  0  0  0  0  0  0  0
   -2.8206  -16.8269    8.4449 H   0  0  0  0  0  0  0  0  0  0  0  0
    1.1737  -17.8990    9.5513 H   0  0  0  0  0  0  0  0  0  0  0  0
    8.1550   -9.0935    9.0207 H   0  0  0  0  0  0  0  0  0  0  0  0
   11.3198  -11.5460    9.0072 H   0  0  0  0  0  0  0  0  0  0  0  0
   13.0525   -9.8488   10.0939 H   0  0  0  0  0  0  0  0  0  0  0  0
   12.2996   -7.3453    9.7046 H   0  0  0  0  0  0  0  0  0  0  0  0
  1  2  1  0
  2  3  1  0
  3  4  1  0
  4  5  1  0
  4  6  1  0
  6  7  1  0
  7  8  2  0
  8  9  1  0
  9 10  2  0
 10 11  1  0
 11 12  2  0
 12 13  1  0
 12 14  1  0
 14 15  2  0
 15 16  1  0
  2 17  1  0
 17 18  1  0
 18 19  2  0
 18 20  1  0
 20 21  2  0
 21 22  1  0
 22 23  2  0
 23 24  1  0
 16  7  1  0
 24 20  1  0
 15  9  1  0
  1 25  1  0
  1 26  1  0
  1 27  1  0
  2 28  1  0
  3 29  1  0
  3 30  1  0
  5 31  1  0
  5 32  1  0
  5 33  1  0
  6 34  1  0
  6 35  1  0
 10 36  1  0
 11 37  1  0
 14 38  1  0
 17 39  1  0
 21 40  1  0
 22 41  1  0
 23 42  1  0
M  END
>  <Energy>  (6) 
386.22212519806078

>  <compound_id>  (6) 
11098

>  <target_id>  (6) 
1

>  <reference_id>  (6) 
66

>  <inspiration_ids>  (6) 
[2, 66]

>  <energy_score>  (6) 
295.1399801018324

>  <distance_score>  (6) 
12.124431829252877

>  <path>  (6) 
/opt/xchem-fragalysis-2/maxwin/BulkDock/SCRATCH/511014/C11098-P66/C11098-P66.minimised.mol

>  <scratch_subdir>  (6) 
/opt/xchem-fragalysis-2/maxwin/BulkDock/SCRATCH/511014/C11098-P66

>  <fragmenstein_runtime>  (6) 
15.063940286636353

>  <fragmenstein_outcome>  (6) 
too moved

>  <fragmenstein_mode>  (6) 
expansion

>  <fragmenstein_error>  (6) 


$$$$
C11099-P2
     RDKit          3D

 43 45  0  0  0  0  0  0  0  0999 V2000
    9.5232   -7.5800   15.0067 C   0  0  0  0  0  0  0  0  0  0  0  0
    9.4387   -9.0293   15.0839 C   0  0  0  0  0  0  0  0  0  0  0  0
    7.2437   -8.3451   14.6289 C   0  0  0  0  0  0  0  0  0  0  0  0
    5.2321   -8.8280   13.9884 N   0  0  0  0  0  0  0  0  0  0  0  0
    4.1644  -10.5194   13.9697 C   0  0  0  0  0  0  0  0  0  0  0  0
    4.8003  -11.4797   14.3145 O   0  0  0  0  0  0  0  0  0  0  0  0
    2.0795  -11.1497   13.4546 C   0  0  0  0  0  0  0  0  0  0  0  0
    0.3758  -12.5762   13.3534 C   0  0  0  0  0  0  0  0  0  0  0  0
   -1.2167  -13.8280   13.9494 C   0  0  0  0  0  0  0  0  0  0  0  0
   -1.8020  -14.6531   15.4681 C   0  0  0  0  0  0  0  0  0  0  0  0
   -3.0567  -15.7022   15.6887 C   0  0  0  0  0  0  0  0  0  0  0  0
   -3.8217  -16.2629   14.3835 C   0  0  0  0  0  0  0  0  0  0  0  0
   -5.0353  -16.7109   14.4821 O   0  0  0  0  0  0  0  0  0  0  0  0
   -5.7873  -16.3876   13.4206 C   0  0  0  0  0  0  0  0  0  0  0  0
   -5.5165  -15.1803   12.7939 N   0  0  0  0  0  0  0  0  0  0  0  0
   -4.1110  -14.9314   13.1396 C   0  0  0  0  0  0  0  0  0  0  0  0
   -3.1350  -13.9553   13.4276 C   0  0  0  0  0  0  0  0  0  0  0  0
   11.4513   -9.0983   15.8663 C   0  0  0  0  0  0  0  0  0  0  0  0
   12.1034   -7.0645   16.1355 C   0  0  0  0  0  0  0  0  0  0  0  0
   13.2436   -5.7865   15.9117 C   0  0  0  0  0  0  0  0  0  0  0  0
   12.8597   -4.2577   15.8928 C   0  0  0  0  0  0  0  0  0  0  0  0
   11.9567   -4.2980   16.8819 C   0  0  0  0  0  0  0  0  0  0  0  0
   13.1154   -5.5012   17.4900 S   0  0  0  0  0  0  0  0  0  0  0  0
    9.7229   -7.4242   15.9348 H   0  0  0  0  0  0  0  0  0  0  0  0
   10.4365   -7.0095   14.9668 H   0  0  0  0  0  0  0  0  0  0  0  0
    8.6552   -6.9866   14.7488 H   0  0  0  0  0  0  0  0  0  0  0  0
    9.1859  -10.0500   15.5209 H   0  0  0  0  0  0  0  0  0  0  0  0
    6.9662   -7.4222   15.1888 H   0  0  0  0  0  0  0  0  0  0  0  0
    7.1912   -7.9335   13.5592 H   0  0  0  0  0  0  0  0  0  0  0  0
    4.6527   -8.0857   13.6061 H   0  0  0  0  0  0  0  0  0  0  0  0
    1.9733  -11.0199   12.3134 H   0  0  0  0  0  0  0  0  0  0  0  0
    1.6419  -11.8341   14.3109 H   0  0  0  0  0  0  0  0  0  0  0  0
    0.8318  -13.5128   12.9927 H   0  0  0  0  0  0  0  0  0  0  0  0
   -0.1143  -12.1592   12.4576 H   0  0  0  0  0  0  0  0  0  0  0  0
   -1.7564  -15.7035   15.1376 H   0  0  0  0  0  0  0  0  0  0  0  0
   -3.4705  -15.9517   16.6596 H   0  0  0  0  0  0  0  0  0  0  0  0
   -6.4096  -17.2223   13.0989 H   0  0  0  0  0  0  0  0  0  0  0  0
   -3.8713  -13.3236   12.9453 H   0  0  0  0  0  0  0  0  0  0  0  0
   11.3994   -9.7423   16.7651 H   0  0  0  0  0  0  0  0  0  0  0  0
   12.1183   -9.7333   15.2542 H   0  0  0  0  0  0  0  0  0  0  0  0
   14.2195   -5.9894   15.4330 H   0  0  0  0  0  0  0  0  0  0  0  0
   13.5720   -3.4610   15.6900 H   0  0  0  0  0  0  0  0  0  0  0  0
   10.9416   -4.5523   16.7978 H   0  0  0  0  0  0  0  0  0  0  0  0
  1  2  1  0
  2  3  1  0
  3  4  1  0
  4  5  1  0
  5  6  2  0
  5  7  1  0
  7  8  1  0
  8  9  1  0
  9 10  2  0
 10 11  1  0
 11 12  2  0
 12 13  1  0
 13 14  1  0
 14 15  2  0
 15 16  1  0
 16 17  2  0
  2 18  1  0
 18 19  1  0
 19 20  2  0
 20 21  1  0
 21 22  2  0
 22 23  1  0
 17  9  1  0
 23 19  1  0
 16 12  1  0
  1 24  1  0
  1 25  1  0
  1 26  1  0
  2 27  1  0
  3 28  1  0
  3 29  1  0
  4 30  1  0
  7 31  1  0
  7 32  1  0
  8 33  1  0
  8 34  1  0
 10 35  1  0
 11 36  1  0
 14 37  1  0
 17 38  1  0
 18 39  1  0
 18 40  1  0
 20 41  1  0
 21 42  1  0
 22 43  1  0
M  END
>  <Energy>  (7) 
2268.9903260723586

>  <compound_id>  (7) 
11099

>  <target_id>  (7) 
1

>  <reference_id>  (7) 
2

>  <inspiration_ids>  (7) 
[2, 66]

>  <energy_score>  (7) 
2202.2973321942086

>  <distance_score>  (7) 
8.777582371276711

>  <path>  (7) 
/opt/xchem-fragalysis-2/maxwin/BulkDock/SCRATCH/511014/C11099-P2/C11099-P2.minimised.mol

>  <scratch_subdir>  (7) 
/opt/xchem-fragalysis-2/maxwin/BulkDock/SCRATCH/511014/C11099-P2

>  <fragmenstein_runtime>  (7) 
14.478963375091553

>  <fragmenstein_outcome>  (7) 
too moved

>  <fragmenstein_mode>  (7) 
expansion

>  <fragmenstein_error>  (7) 


$$$$
C11099-P66
     RDKit          3D

 43 45  0  0  0  0  0  0  0  0999 V2000
   11.0459   -3.8113   13.9712 C   0  0  0  0  0  0  0  0  0  0  0  0
   10.2811   -3.8019   15.3330 C   0  0  0  0  0  0  0  0  0  0  0  0
    8.3544   -4.2586   15.5156 C   0  0  0  0  0  0  0  0  0  0  0  0
    7.0258   -5.5829   16.3180 N   0  0  0  0  0  0  0  0  0  0  0  0
    6.2315   -5.6282   17.9534 C   0  0  0  0  0  0  0  0  0  0  0  0
    6.4649   -4.8654   18.8787 O   0  0  0  0  0  0  0  0  0  0  0  0
    5.1914   -6.7813   18.4527 C   0  0  0  0  0  0  0  0  0  0  0  0
    4.3937   -6.7524   19.8811 C   0  0  0  0  0  0  0  0  0  0  0  0
    3.3029   -7.8481   20.2670 C   0  0  0  0  0  0  0  0  0  0  0  0
    3.2008   -8.3639   21.5761 C   0  0  0  0  0  0  0  0  0  0  0  0
    2.0301   -8.9981   22.0979 C   0  0  0  0  0  0  0  0  0  0  0  0
    0.8879   -8.8637   21.3269 C   0  0  0  0  0  0  0  0  0  0  0  0
   -0.4170   -9.1764   21.6175 O   0  0  0  0  0  0  0  0  0  0  0  0
   -1.1110   -8.7318   20.5228 C   0  0  0  0  0  0  0  0  0  0  0  0
   -0.3691   -8.1925   19.5770 N   0  0  0  0  0  0  0  0  0  0  0  0
    0.9332   -8.3562   20.0471 C   0  0  0  0  0  0  0  0  0  0  0  0
    2.2159   -8.1555   19.4524 C   0  0  0  0  0  0  0  0  0  0  0  0
   10.7273   -2.3224   15.6124 C   0  0  0  0  0  0  0  0  0  0  0  0
   12.2503   -2.1794   15.7728 C   0  0  0  0  0  0  0  0  0  0  0  0
   13.1058   -2.8836   16.6008 C   0  0  0  0  0  0  0  0  0  0  0  0
   14.4634   -2.4925   16.4387 C   0  0  0  0  0  0  0  0  0  0  0  0
   14.6101   -1.5118   15.4860 C   0  0  0  0  0  0  0  0  0  0  0  0
   13.1199   -1.0595   14.7886 S   0  0  0  0  0  0  0  0  0  0  0  0
   10.9150   -2.9443   13.3446 H   0  0  0  0  0  0  0  0  0  0  0  0
   10.9679   -4.6593   13.3301 H   0  0  0  0  0  0  0  0  0  0  0  0
   12.1074   -3.7335   14.1511 H   0  0  0  0  0  0  0  0  0  0  0  0
   10.8341   -4.4406   16.0362 H   0  0  0  0  0  0  0  0  0  0  0  0
    7.8683   -3.2509   15.2770 H   0  0  0  0  0  0  0  0  0  0  0  0
    8.6445   -4.8216   14.6367 H   0  0  0  0  0  0  0  0  0  0  0  0
    6.7119   -6.3776   15.7686 H   0  0  0  0  0  0  0  0  0  0  0  0
    4.5509   -6.9905   17.6386 H   0  0  0  0  0  0  0  0  0  0  0  0
    5.8013   -7.5647   18.9169 H   0  0  0  0  0  0  0  0  0  0  0  0
    3.9520   -5.7642   20.0613 H   0  0  0  0  0  0  0  0  0  0  0  0
    5.1681   -6.8167   20.6629 H   0  0  0  0  0  0  0  0  0  0  0  0
    4.0339   -8.2192   22.2670 H   0  0  0  0  0  0  0  0  0  0  0  0
    1.9884   -9.3758   23.1123 H   0  0  0  0  0  0  0  0  0  0  0  0
   -2.1812   -8.8723   20.5382 H   0  0  0  0  0  0  0  0  0  0  0  0
    2.2949   -8.0671   18.3802 H   0  0  0  0  0  0  0  0  0  0  0  0
   10.3599   -1.6442   14.8348 H   0  0  0  0  0  0  0  0  0  0  0  0
   10.2615   -1.9591   16.4860 H   0  0  0  0  0  0  0  0  0  0  0  0
   12.7795   -3.6631   17.2808 H   0  0  0  0  0  0  0  0  0  0  0  0
   15.2942   -2.9250   16.9824 H   0  0  0  0  0  0  0  0  0  0  0  0
   15.5274   -1.0444   15.1561 H   0  0  0  0  0  0  0  0  0  0  0  0
  1  2  1  0
  2  3  1  0
  3  4  1  0
  4  5  1  0
  5  6  2  0
  5  7  1  0
  7  8  1  0
  8  9  1  0
  9 10  2  0
 10 11  1  0
 11 12  2  0
 12 13  1  0
 13 14  1  0
 14 15  2  0
 15 16  1  0
 16 17  2  0
  2 18  1  0
 18 19  1  0
 19 20  2  0
 20 21  1  0
 21 22  2  0
 22 23  1  0
 17  9  1  0
 23 19  1  0
 16 12  1  0
  1 24  1  0
  1 25  1  0
  1 26  1  0
  2 27  1  0
  3 28  1  0
  3 29  1  0
  4 30  1  0
  7 31  1  0
  7 32  1  0
  8 33  1  0
  8 34  1  0
 10 35  1  0
 11 36  1  0
 14 37  1  0
 17 38  1  0
 18 39  1  0
 18 40  1  0
 20 41  1  0
 21 42  1  0
 22 43  1  0
M  END
>  <Energy>  (8) 
338.32479044347292

>  <compound_id>  (8) 
11099

>  <target_id>  (8) 
1

>  <reference_id>  (8) 
66

>  <inspiration_ids>  (8) 
[2, 66]

>  <energy_score>  (8) 
271.63179656530986

>  <distance_score>  (8) 
15.559541636433995

>  <path>  (8) 
/opt/xchem-fragalysis-2/maxwin/BulkDock/SCRATCH/511014/C11099-P66/C11099-P66.minimised.mol

>  <scratch_subdir>  (8) 
/opt/xchem-fragalysis-2/maxwin/BulkDock/SCRATCH/511014/C11099-P66

>  <fragmenstein_runtime>  (8) 
16.730260848999023

>  <fragmenstein_outcome>  (8) 
too moved

>  <fragmenstein_mode>  (8) 
expansion

>  <fragmenstein_error>  (8) 


$$$$
C11100-P2
     RDKit          3D

 43 45  0  0  0  0  0  0  0  0999 V2000
   11.5369  -10.0936   15.4565 C   0  0  0  0  0  0  0  0  0  0  0  0
   10.0301   -9.0144   15.4664 C   0  0  0  0  0  0  0  0  0  0  0  0
    9.8636  -10.2922   16.8406 C   0  0  0  0  0  0  0  0  0  0  0  0
    8.5603  -10.3310   14.9097 C   0  0  0  0  0  0  0  0  0  0  0  0
    6.9196   -9.9911   13.8949 N   0  0  0  0  0  0  0  0  0  0  0  0
    5.4659  -11.0308   13.5731 C   0  0  0  0  0  0  0  0  0  0  0  0
    5.3737  -12.1876   13.9026 O   0  0  0  0  0  0  0  0  0  0  0  0
    3.7167  -10.4062   12.7851 C   0  0  0  0  0  0  0  0  0  0  0  0
    2.0484  -11.0678   11.7201 C   0  0  0  0  0  0  0  0  0  0  0  0
    0.5228  -12.2562   11.7915 C   0  0  0  0  0  0  0  0  0  0  0  0
   -0.5929  -12.1633   10.9986 C   0  0  0  0  0  0  0  0  0  0  0  0
   -1.4844  -13.3820   10.4460 C   0  0  0  0  0  0  0  0  0  0  0  0
   -1.2052  -14.6759   10.7692 C   0  0  0  0  0  0  0  0  0  0  0  0
   -1.7553  -15.8455   10.3582 O   0  0  0  0  0  0  0  0  0  0  0  0
   -0.8331  -16.7484   10.8019 C   0  0  0  0  0  0  0  0  0  0  0  0
    0.1725  -16.2107   11.4706 N   0  0  0  0  0  0  0  0  0  0  0  0
   -0.1054  -14.8692   11.5393 C   0  0  0  0  0  0  0  0  0  0  0  0
    0.5241  -13.6891   12.1538 C   0  0  0  0  0  0  0  0  0  0  0  0
   10.6990   -6.9435   15.4571 C   0  0  0  0  0  0  0  0  0  0  0  0
   10.7389   -5.1220   14.8953 C   0  0  0  0  0  0  0  0  0  0  0  0
   11.3268   -4.0071   15.6350 C   0  0  0  0  0  0  0  0  0  0  0  0
   12.0164   -4.5047   16.6731 C   0  0  0  0  0  0  0  0  0  0  0  0
   12.4566   -6.1088   16.3560 S   0  0  0  0  0  0  0  0  0  0  0  0
   11.9648  -10.3429   16.4226 H   0  0  0  0  0  0  0  0  0  0  0  0
   12.4806   -9.8474   14.9814 H   0  0  0  0  0  0  0  0  0  0  0  0
   11.2195  -11.0140   14.9821 H   0  0  0  0  0  0  0  0  0  0  0  0
    9.7696  -11.3143   16.4197 H   0  0  0  0  0  0  0  0  0  0  0  0
   10.6964  -10.5461   17.5269 H   0  0  0  0  0  0  0  0  0  0  0  0
    8.9734  -10.1791   17.4738 H   0  0  0  0  0  0  0  0  0  0  0  0
    9.1687  -11.0508   14.4128 H   0  0  0  0  0  0  0  0  0  0  0  0
    8.1432  -10.5015   15.8719 H   0  0  0  0  0  0  0  0  0  0  0  0
    6.7302   -9.0481   13.6068 H   0  0  0  0  0  0  0  0  0  0  0  0
    3.8224  -10.8936   11.6834 H   0  0  0  0  0  0  0  0  0  0  0  0
    3.3189  -10.6052   13.7781 H   0  0  0  0  0  0  0  0  0  0  0  0
    2.5267  -11.6492   10.8910 H   0  0  0  0  0  0  0  0  0  0  0  0
    1.6495  -10.2282   11.1356 H   0  0  0  0  0  0  0  0  0  0  0  0
   -0.9379  -11.2064   10.6426 H   0  0  0  0  0  0  0  0  0  0  0  0
   -2.3596  -13.1535    9.8290 H   0  0  0  0  0  0  0  0  0  0  0  0
   -1.0162  -17.7932   10.5913 H   0  0  0  0  0  0  0  0  0  0  0  0
    1.1554  -14.0208   12.9402 H   0  0  0  0  0  0  0  0  0  0  0  0
   10.5370   -4.8319   13.8959 H   0  0  0  0  0  0  0  0  0  0  0  0
   11.2608   -2.9678   15.3410 H   0  0  0  0  0  0  0  0  0  0  0  0
   12.5788   -3.9540   17.4138 H   0  0  0  0  0  0  0  0  0  0  0  0
  1  2  1  0
  2  3  1  0
  2  4  1  0
  4  5  1  0
  5  6  1  0
  6  7  2  0
  6  8  1  0
  8  9  1  0
  9 10  1  0
 10 11  2  0
 11 12  1  0
 12 13  2  0
 13 14  1  0
 14 15  1  0
 15 16  2  0
 16 17  1  0
 17 18  2  0
  2 19  1  0
 19 20  2  0
 20 21  1  0
 21 22  2  0
 22 23  1  0
 18 10  1  0
 23 19  1  0
 17 13  1  0
  1 24  1  0
  1 25  1  0
  1 26  1  0
  3 27  1  0
  3 28  1  0
  3 29  1  0
  4 30  1  0
  4 31  1  0
  5 32  1  0
  8 33  1  0
  8 34  1  0
  9 35  1  0
  9 36  1  0
 11 37  1  0
 12 38  1  0
 15 39  1  0
 18 40  1  0
 20 41  1  0
 21 42  1  0
 22 43  1  0
M  END
>  <Energy>  (9) 
1057.1124103834261

>  <compound_id>  (9) 
11100

>  <target_id>  (9) 
1

>  <reference_id>  (9) 
2

>  <inspiration_ids>  (9) 
[2, 66]

>  <energy_score>  (9) 
970.3671142178208

>  <distance_score>  (9) 
9.719700364659584

>  <path>  (9) 
/opt/xchem-fragalysis-2/maxwin/BulkDock/SCRATCH/511014/C11100-P2/C11100-P2.minimised.mol

>  <scratch_subdir>  (9) 
/opt/xchem-fragalysis-2/maxwin/BulkDock/SCRATCH/511014/C11100-P2

>  <fragmenstein_runtime>  (9) 
18.791276931762695

>  <fragmenstein_outcome>  (9) 
too moved

>  <fragmenstein_mode>  (9) 
expansion

>  <fragmenstein_error>  (9) 


$$$$
C11100-P66
     RDKit          3D

 43 45  0  0  0  0  0  0  0  0999 V2000
    3.8640   -6.4370   15.2497 C   0  0  0  0  0  0  0  0  0  0  0  0
    5.7568   -6.8658   14.9340 C   0  0  0  0  0  0  0  0  0  0  0  0
    5.8227   -6.8143   16.8854 C   0  0  0  0  0  0  0  0  0  0  0  0
    4.3355   -7.8100   13.5678 C   0  0  0  0  0  0  0  0  0  0  0  0
    3.7805   -8.4375   11.6861 N   0  0  0  0  0  0  0  0  0  0  0  0
    3.2565  -10.1211   11.0519 C   0  0  0  0  0  0  0  0  0  0  0  0
    3.0628  -10.9945   11.7956 O   0  0  0  0  0  0  0  0  0  0  0  0
    3.2094  -10.7846    9.3183 C   0  0  0  0  0  0  0  0  0  0  0  0
    3.8121  -12.4365    8.8383 C   0  0  0  0  0  0  0  0  0  0  0  0
    3.3974  -13.5819    7.7750 C   0  0  0  0  0  0  0  0  0  0  0  0
    3.5978  -14.9354    8.2031 C   0  0  0  0  0  0  0  0  0  0  0  0
    2.9457  -16.0526    7.6293 C   0  0  0  0  0  0  0  0  0  0  0  0
    2.0972  -15.7752    6.5693 C   0  0  0  0  0  0  0  0  0  0  0  0
    1.2396  -16.6388    5.9409 O   0  0  0  0  0  0  0  0  0  0  0  0
    0.6174  -15.8514    5.0196 C   0  0  0  0  0  0  0  0  0  0  0  0
    1.0043  -14.5919    4.9950 N   0  0  0  0  0  0  0  0  0  0  0  0
    1.9524  -14.5136    6.0018 C   0  0  0  0  0  0  0  0  0  0  0  0
    2.6610  -13.3984    6.5700 C   0  0  0  0  0  0  0  0  0  0  0  0
    6.2342   -5.2524   15.9153 C   0  0  0  0  0  0  0  0  0  0  0  0
    4.7308   -4.4547   16.5719 C   0  0  0  0  0  0  0  0  0  0  0  0
    3.9047   -3.3256   16.0007 C   0  0  0  0  0  0  0  0  0  0  0  0
    4.4430   -2.7510   14.9144 C   0  0  0  0  0  0  0  0  0  0  0  0
    6.0988   -3.1326   14.7491 S   0  0  0  0  0  0  0  0  0  0  0  0
    4.0598   -6.1793   16.2232 H   0  0  0  0  0  0  0  0  0  0  0  0
    3.3038   -5.6452   14.7235 H   0  0  0  0  0  0  0  0  0  0  0  0
    3.3329   -7.3188   15.4718 H   0  0  0  0  0  0  0  0  0  0  0  0
    6.8218   -6.6987   17.2450 H   0  0  0  0  0  0  0  0  0  0  0  0
    5.1758   -7.4053   17.5022 H   0  0  0  0  0  0  0  0  0  0  0  0
    5.5200   -6.0365   17.5812 H   0  0  0  0  0  0  0  0  0  0  0  0
    4.5011   -8.8579   13.8221 H   0  0  0  0  0  0  0  0  0  0  0  0
    5.2993   -7.6041   13.1045 H   0  0  0  0  0  0  0  0  0  0  0  0
    3.8193   -7.8015   10.9241 H   0  0  0  0  0  0  0  0  0  0  0  0
    2.8105  -10.5754    8.3062 H   0  0  0  0  0  0  0  0  0  0  0  0
    4.2666  -10.4740    9.2077 H   0  0  0  0  0  0  0  0  0  0  0  0
    4.8087  -12.2268    8.4210 H   0  0  0  0  0  0  0  0  0  0  0  0
    3.8936  -12.9536    9.8007 H   0  0  0  0  0  0  0  0  0  0  0  0
    4.2091  -15.1183    9.0857 H   0  0  0  0  0  0  0  0  0  0  0  0
    3.0460  -17.0501    8.0388 H   0  0  0  0  0  0  0  0  0  0  0  0
   -0.1228  -16.3318    4.3962 H   0  0  0  0  0  0  0  0  0  0  0  0
    2.4575  -12.4049    6.1833 H   0  0  0  0  0  0  0  0  0  0  0  0
    4.4912   -4.7416   17.5866 H   0  0  0  0  0  0  0  0  0  0  0  0
    3.0076   -2.9387   16.4728 H   0  0  0  0  0  0  0  0  0  0  0  0
    4.0486   -1.9270   14.3357 H   0  0  0  0  0  0  0  0  0  0  0  0
  1  2  1  0
  2  3  1  0
  2  4  1  0
  4  5  1  0
  5  6  1  0
  6  7  2  0
  6  8  1  0
  8  9  1  0
  9 10  1  0
 10 11  2  0
 11 12  1  0
 12 13  2  0
 13 14  1  0
 14 15  1  0
 15 16  2  0
 16 17  1  0
 17 18  2  0
  2 19  1  0
 19 20  2  0
 20 21  1  0
 21 22  2  0
 22 23  1  0
 18 10  1  0
 23 19  1  0
 17 13  1  0
  1 24  1  0
  1 25  1  0
  1 26  1  0
  3 27  1  0
  3 28  1  0
  3 29  1  0
  4 30  1  0
  4 31  1  0
  5 32  1  0
  8 33  1  0
  8 34  1  0
  9 35  1  0
  9 36  1  0
 11 37  1  0
 12 38  1  0
 15 39  1  0
 18 40  1  0
 20 41  1  0
 21 42  1  0
 22 43  1  0
M  END
>  <Energy>  (10) 
1060.5067434258069

>  <compound_id>  (10) 
11100

>  <target_id>  (10) 
1

>  <reference_id>  (10) 
66

>  <inspiration_ids>  (10) 
[2, 66]

>  <energy_score>  (10) 
973.7614472602006

>  <distance_score>  (10) 
11.506641457098905

>  <path>  (10) 
/opt/xchem-fragalysis-2/maxwin/BulkDock/SCRATCH/511014/C11100-P66/C11100-P66.minimised.mol

>  <scratch_subdir>  (10) 
/opt/xchem-fragalysis-2/maxwin/BulkDock/SCRATCH/511014/C11100-P66

>  <fragmenstein_runtime>  (10) 
20.267282247543335

>  <fragmenstein_outcome>  (10) 
too moved

>  <fragmenstein_mode>  (10) 
expansion

>  <fragmenstein_error>  (10) 


$$$$
C11101-P2
     RDKit          3D

 41 43  0  0  0  0  0  0  0  0999 V2000
   -7.9755  -25.0770   10.9716 C   0  0  0  0  0  0  0  0  0  0  0  0
   -7.8288  -23.8164   11.6298 O   0  0  0  0  0  0  0  0  0  0  0  0
   -6.5297  -23.4553   11.9217 C   0  0  0  0  0  0  0  0  0  0  0  0
   -5.6207  -24.2592   11.7521 O   0  0  0  0  0  0  0  0  0  0  0  0
   -6.4742  -21.8847   12.4040 C   0  0  0  0  0  0  0  0  0  0  0  0
   -7.5175  -21.3044   11.7198 C   0  0  0  0  0  0  0  0  0  0  0  0
   -7.4173  -19.9760   11.5743 C   0  0  0  0  0  0  0  0  0  0  0  0
   -6.3138  -19.1729   12.0342 C   0  0  0  0  0  0  0  0  0  0  0  0
   -4.9615  -19.6619   12.2387 C   0  0  0  0  0  0  0  0  0  0  0  0
   -3.5604  -19.3853   11.7123 N   0  0  0  0  0  0  0  0  0  0  0  0
   -2.6342  -20.1727   12.1474 C   0  0  0  0  0  0  0  0  0  0  0  0
   -1.2784  -19.8154   12.4578 N   0  0  0  0  0  0  0  0  0  0  0  0
   -0.4591  -18.5506   11.9102 C   0  0  0  0  0  0  0  0  0  0  0  0
    0.5877  -17.4863   12.8854 C   0  0  0  0  0  0  0  0  0  0  0  0
   -0.2437  -16.3889   13.6078 C   0  0  0  0  0  0  0  0  0  0  0  0
    1.3160  -18.2794   13.9869 C   0  0  0  0  0  0  0  0  0  0  0  0
    1.6738  -16.6238   12.0468 C   0  0  0  0  0  0  0  0  0  0  0  0
    1.4610  -15.7040   11.0237 C   0  0  0  0  0  0  0  0  0  0  0  0
    2.6417  -15.0014   10.6063 C   0  0  0  0  0  0  0  0  0  0  0  0
    3.7502  -15.3880   11.3186 C   0  0  0  0  0  0  0  0  0  0  0  0
    3.3563  -16.5344   12.5191 S   0  0  0  0  0  0  0  0  0  0  0  0
   -3.3237  -21.3590   12.6446 O   0  0  0  0  0  0  0  0  0  0  0  0
   -4.9587  -20.9278   12.7732 C   0  0  0  0  0  0  0  0  0  0  0  0
   -9.0446  -25.2634   10.8373 H   0  0  0  0  0  0  0  0  0  0  0  0
   -7.5043  -25.0436    9.9847 H   0  0  0  0  0  0  0  0  0  0  0  0
   -7.5572  -25.8903   11.5704 H   0  0  0  0  0  0  0  0  0  0  0  0
   -8.3832  -21.8060   11.3131 H   0  0  0  0  0  0  0  0  0  0  0  0
   -8.3581  -19.6109   11.2041 H   0  0  0  0  0  0  0  0  0  0  0  0
   -6.4169  -18.1052   12.0357 H   0  0  0  0  0  0  0  0  0  0  0  0
   -0.7042  -20.5952   12.7474 H   0  0  0  0  0  0  0  0  0  0  0  0
   -1.1497  -17.8940   11.3724 H   0  0  0  0  0  0  0  0  0  0  0  0
    0.2172  -18.9775   11.1592 H   0  0  0  0  0  0  0  0  0  0  0  0
   -0.9792  -16.8505   14.2762 H   0  0  0  0  0  0  0  0  0  0  0  0
   -0.7998  -15.7784   12.8876 H   0  0  0  0  0  0  0  0  0  0  0  0
    0.3846  -15.7182   14.2054 H   0  0  0  0  0  0  0  0  0  0  0  0
    1.8684  -17.6415   14.6855 H   0  0  0  0  0  0  0  0  0  0  0  0
    0.5890  -18.8430   14.5834 H   0  0  0  0  0  0  0  0  0  0  0  0
    2.0070  -19.0112   13.5540 H   0  0  0  0  0  0  0  0  0  0  0  0
    0.4827  -15.5322   10.5895 H   0  0  0  0  0  0  0  0  0  0  0  0
    2.6653  -14.2598    9.8168 H   0  0  0  0  0  0  0  0  0  0  0  0
    4.7667  -15.0358   11.2087 H   0  0  0  0  0  0  0  0  0  0  0  0
  1  2  1  0
  2  3  1  0
  3  4  2  0
  3  5  1  0
  5  6  2  0
  6  7  1  0
  7  8  2  0
  8  9  1  0
  9 10  1  0
 10 11  2  0
 11 12  1  0
 12 13  1  0
 13 14  1  0
 14 15  1  0
 14 16  1  0
 14 17  1  0
 17 18  2  0
 18 19  1  0
 19 20  2  0
 20 21  1  0
 11 22  1  0
 22 23  1  0
 23  5  1  0
 23  9  2  0
 21 17  1  0
  1 24  1  0
  1 25  1  0
  1 26  1  0
  6 27  1  0
  7 28  1  0
  8 29  1  0
 12 30  1  0
 13 31  1  0
 13 32  1  0
 15 33  1  0
 15 34  1  0
 15 35  1  0
 16 36  1  0
 16 37  1  0
 16 38  1  0
 18 39  1  0
 19 40  1  0
 20 41  1  0
M  END
>  <Energy>  (11) 
215.52596233860942

>  <compound_id>  (11) 
11101

>  <target_id>  (11) 
1

>  <reference_id>  (11) 
2

>  <inspiration_ids>  (11) 
[2, 66]

>  <energy_score>  (11) 
148.21592825356396

>  <distance_score>  (11) 
14.325118079016551

>  <path>  (11) 
/opt/xchem-fragalysis-2/maxwin/BulkDock/SCRATCH/511014/C11101-P2/C11101-P2.minimised.mol

>  <scratch_subdir>  (11) 
/opt/xchem-fragalysis-2/maxwin/BulkDock/SCRATCH/511014/C11101-P2

>  <fragmenstein_runtime>  (11) 
13.31109881401062

>  <fragmenstein_outcome>  (11) 
too moved

>  <fragmenstein_mode>  (11) 
expansion

>  <fragmenstein_error>  (11) 


$$$$
C11101-P66
     RDKit          3D

 41 43  0  0  0  0  0  0  0  0999 V2000
    5.3383  -16.4690   16.5767 C   0  0  0  0  0  0  0  0  0  0  0  0
    4.3368  -15.4526   16.5144 O   0  0  0  0  0  0  0  0  0  0  0  0
    3.0689  -15.9277   16.4900 C   0  0  0  0  0  0  0  0  0  0  0  0
    2.7485  -17.1053   16.5420 O   0  0  0  0  0  0  0  0  0  0  0  0
    2.0797  -14.8375   16.4069 C   0  0  0  0  0  0  0  0  0  0  0  0
    0.6967  -15.1484   16.3859 C   0  0  0  0  0  0  0  0  0  0  0  0
   -0.2737  -14.1453   16.2957 C   0  0  0  0  0  0  0  0  0  0  0  0
    0.1101  -12.7943   16.2318 C   0  0  0  0  0  0  0  0  0  0  0  0
    1.4857  -12.4684   16.2049 C   0  0  0  0  0  0  0  0  0  0  0  0
    2.1596  -11.2515   16.0367 N   0  0  0  0  0  0  0  0  0  0  0  0
    3.3950  -11.5461   15.6928 C   0  0  0  0  0  0  0  0  0  0  0  0
    4.3557  -11.0664   14.7322 N   0  0  0  0  0  0  0  0  0  0  0  0
    5.1322   -9.5988   14.0909 C   0  0  0  0  0  0  0  0  0  0  0  0
    6.6597   -8.2400   14.6013 C   0  0  0  0  0  0  0  0  0  0  0  0
    6.9211   -7.7453   13.2019 C   0  0  0  0  0  0  0  0  0  0  0  0
    7.8847   -9.9484   15.1781 C   0  0  0  0  0  0  0  0  0  0  0  0
    5.9910   -6.7803   15.8687 C   0  0  0  0  0  0  0  0  0  0  0  0
    6.1882   -6.1394   17.1286 C   0  0  0  0  0  0  0  0  0  0  0  0
    5.2519   -5.6907   18.1389 C   0  0  0  0  0  0  0  0  0  0  0  0
    3.9959   -5.5815   17.6945 C   0  0  0  0  0  0  0  0  0  0  0  0
    3.8208   -6.2852   16.2017 S   0  0  0  0  0  0  0  0  0  0  0  0
    3.6484  -12.8898   16.1027 O   0  0  0  0  0  0  0  0  0  0  0  0
    2.4113  -13.4867   16.2818 C   0  0  0  0  0  0  0  0  0  0  0  0
    5.2757  -17.1244   15.7023 H   0  0  0  0  0  0  0  0  0  0  0  0
    6.3165  -15.9801   16.5732 H   0  0  0  0  0  0  0  0  0  0  0  0
    5.2418  -17.0451   17.5023 H   0  0  0  0  0  0  0  0  0  0  0  0
    0.3807  -16.1903   16.4452 H   0  0  0  0  0  0  0  0  0  0  0  0
   -1.3293  -14.4088   16.2866 H   0  0  0  0  0  0  0  0  0  0  0  0
   -0.6341  -12.0076   16.1593 H   0  0  0  0  0  0  0  0  0  0  0  0
    5.0089  -11.8122   14.5005 H   0  0  0  0  0  0  0  0  0  0  0  0
    5.7052  -10.4227   13.6315 H   0  0  0  0  0  0  0  0  0  0  0  0
    4.3767   -9.0319   13.5680 H   0  0  0  0  0  0  0  0  0  0  0  0
    7.7528   -7.1447   12.8869 H   0  0  0  0  0  0  0  0  0  0  0  0
    5.9489   -7.3700   13.0136 H   0  0  0  0  0  0  0  0  0  0  0  0
    7.2734   -8.4157   12.4643 H   0  0  0  0  0  0  0  0  0  0  0  0
    9.0535  -10.0185   15.2076 H   0  0  0  0  0  0  0  0  0  0  0  0
    7.8579  -10.4290   16.1775 H   0  0  0  0  0  0  0  0  0  0  0  0
    7.8043  -10.5857   14.3297 H   0  0  0  0  0  0  0  0  0  0  0  0
    7.0350   -6.4166   17.6422 H   0  0  0  0  0  0  0  0  0  0  0  0
    5.5368   -5.4222   19.1489 H   0  0  0  0  0  0  0  0  0  0  0  0
    3.1353   -5.2007   18.2273 H   0  0  0  0  0  0  0  0  0  0  0  0
  1  2  1  0
  2  3  1  0
  3  4  2  0
  3  5  1  0
  5  6  2  0
  6  7  1  0
  7  8  2  0
  8  9  1  0
  9 10  1  0
 10 11  2  0
 11 12  1  0
 12 13  1  0
 13 14  1  0
 14 15  1  0
 14 16  1  0
 14 17  1  0
 17 18  2  0
 18 19  1  0
 19 20  2  0
 20 21  1  0
 11 22  1  0
 22 23  1  0
 23  5  1  0
 23  9  2  0
 21 17  1  0
  1 24  1  0
  1 25  1  0
  1 26  1  0
  6 27  1  0
  7 28  1  0
  8 29  1  0
 12 30  1  0
 13 31  1  0
 13 32  1  0
 15 33  1  0
 15 34  1  0
 15 35  1  0
 16 36  1  0
 16 37  1  0
 16 38  1  0
 18 39  1  0
 19 40  1  0
 20 41  1  0
M  END
>  <Energy>  (12) 
493.23442352079945

>  <compound_id>  (12) 
11101

>  <target_id>  (12) 
1

>  <reference_id>  (12) 
66

>  <inspiration_ids>  (12) 
[2, 66]

>  <energy_score>  (12) 
425.9243894357543

>  <distance_score>  (12) 
13.784535888250943

>  <path>  (12) 
/opt/xchem-fragalysis-2/maxwin/BulkDock/SCRATCH/511014/C11101-P66/C11101-P66.minimised.mol

>  <scratch_subdir>  (12) 
/opt/xchem-fragalysis-2/maxwin/BulkDock/SCRATCH/511014/C11101-P66

>  <fragmenstein_runtime>  (12) 
13.761932849884033

>  <fragmenstein_outcome>  (12) 
too moved

>  <fragmenstein_mode>  (12) 
expansion

>  <fragmenstein_error>  (12) 


$$$$
C11102-P2
     RDKit          3D

 41 43  0  0  0  0  0  0  0  0999 V2000
    3.0808  -18.7562   13.3839 C   0  0  0  0  0  0  0  0  0  0  0  0
    3.7336  -17.4858   13.3893 O   0  0  0  0  0  0  0  0  0  0  0  0
    4.4161  -17.2167   12.2533 C   0  0  0  0  0  0  0  0  0  0  0  0
    4.5522  -17.9466   11.2854 O   0  0  0  0  0  0  0  0  0  0  0  0
    4.9943  -15.8600   12.3175 C   0  0  0  0  0  0  0  0  0  0  0  0
    5.4761  -15.1936   11.1958 C   0  0  0  0  0  0  0  0  0  0  0  0
    6.3337  -14.0417   11.5902 C   0  0  0  0  0  0  0  0  0  0  0  0
    6.3732  -12.8643   12.8660 C   0  0  0  0  0  0  0  0  0  0  0  0
    5.8203  -11.1400   12.8611 N   0  0  0  0  0  0  0  0  0  0  0  0
    6.3422  -10.1988   13.8543 C   0  0  0  0  0  0  0  0  0  0  0  0
    6.8052   -8.2681   14.0465 N   0  0  0  0  0  0  0  0  0  0  0  0
    8.3819   -6.8768   14.5527 C   0  0  0  0  0  0  0  0  0  0  0  0
    9.5543   -4.9520   14.5130 C   0  0  0  0  0  0  0  0  0  0  0  0
   11.0140   -4.3328   13.4087 C   0  0  0  0  0  0  0  0  0  0  0  0
   11.0736   -4.6708   15.7847 C   0  0  0  0  0  0  0  0  0  0  0  0
    8.9808   -3.2087   14.8423 C   0  0  0  0  0  0  0  0  0  0  0  0
    7.7888   -2.5085   14.7790 C   0  0  0  0  0  0  0  0  0  0  0  0
    7.8814   -1.2067   15.3372 C   0  0  0  0  0  0  0  0  0  0  0  0
    9.1433   -0.7151   15.4982 C   0  0  0  0  0  0  0  0  0  0  0  0
   10.3042   -1.8998   15.1943 S   0  0  0  0  0  0  0  0  0  0  0  0
    5.2373  -11.6180   14.3685 O   0  0  0  0  0  0  0  0  0  0  0  0
    5.7572  -13.3322   13.8587 C   0  0  0  0  0  0  0  0  0  0  0  0
    5.3095  -15.1041   13.6263 C   0  0  0  0  0  0  0  0  0  0  0  0
    3.8164  -19.5633   13.3110 H   0  0  0  0  0  0  0  0  0  0  0  0
    2.3585  -18.8139   12.5634 H   0  0  0  0  0  0  0  0  0  0  0  0
    2.5406  -18.8636   14.3286 H   0  0  0  0  0  0  0  0  0  0  0  0
    5.5459  -15.6640   10.2210 H   0  0  0  0  0  0  0  0  0  0  0  0
    7.2354  -13.9835   10.9647 H   0  0  0  0  0  0  0  0  0  0  0  0
    7.0221   -8.1622   13.0533 H   0  0  0  0  0  0  0  0  0  0  0  0
    9.2761   -7.5000   14.8493 H   0  0  0  0  0  0  0  0  0  0  0  0
    8.3604   -7.0245   13.4748 H   0  0  0  0  0  0  0  0  0  0  0  0
   11.3823   -4.9599   12.6018 H   0  0  0  0  0  0  0  0  0  0  0  0
   11.8785   -3.9012   13.8905 H   0  0  0  0  0  0  0  0  0  0  0  0
   10.7869   -3.3986   12.9317 H   0  0  0  0  0  0  0  0  0  0  0  0
   10.7782   -4.2110   16.7136 H   0  0  0  0  0  0  0  0  0  0  0  0
   11.8875   -3.9920   15.5342 H   0  0  0  0  0  0  0  0  0  0  0  0
   11.5316   -5.6211   16.1027 H   0  0  0  0  0  0  0  0  0  0  0  0
    6.8230   -2.8954   14.5009 H   0  0  0  0  0  0  0  0  0  0  0  0
    6.9955   -0.6620   15.5953 H   0  0  0  0  0  0  0  0  0  0  0  0
    9.4332    0.2802   15.8036 H   0  0  0  0  0  0  0  0  0  0  0  0
    5.1125  -15.7780   14.4741 H   0  0  0  0  0  0  0  0  0  0  0  0
  1  2  1  0
  2  3  1  0
  3  4  2  0
  3  5  1  0
  5  6  2  0
  6  7  1  0
  7  8  2  0
  8  9  1  0
  9 10  2  0
 10 11  1  0
 11 12  1  0
 12 13  1  0
 13 14  1  0
 13 15  1  0
 13 16  1  0
 16 17  2  0
 17 18  1  0
 18 19  2  0
 19 20  1  0
 10 21  1  0
 21 22  1  0
 22 23  2  0
 23  5  1  0
 22  8  1  0
 20 16  1  0
  1 24  1  0
  1 25  1  0
  1 26  1  0
  6 27  1  0
  7 28  1  0
 11 29  1  0
 12 30  1  0
 12 31  1  0
 14 32  1  0
 14 33  1  0
 14 34  1  0
 15 35  1  0
 15 36  1  0
 15 37  1  0
 17 38  1  0
 18 39  1  0
 19 40  1  0
 23 41  1  0
M  END
>  <Energy>  (13) 
1292.7964183480099

>  <compound_id>  (13) 
11102

>  <target_id>  (13) 
1

>  <reference_id>  (13) 
2

>  <inspiration_ids>  (13) 
[2, 66]

>  <energy_score>  (13) 
1233.8696721231033

>  <distance_score>  (13) 
13.990050698037981

>  <path>  (13) 
/opt/xchem-fragalysis-2/maxwin/BulkDock/SCRATCH/511014/C11102-P2/C11102-P2.minimised.mol

>  <scratch_subdir>  (13) 
/opt/xchem-fragalysis-2/maxwin/BulkDock/SCRATCH/511014/C11102-P2

>  <fragmenstein_runtime>  (13) 
12.717357397079468

>  <fragmenstein_outcome>  (13) 
too moved

>  <fragmenstein_mode>  (13) 
expansion

>  <fragmenstein_error>  (13) 


$$$$
C11102-P66
     RDKit          3D

 41 43  0  0  0  0  0  0  0  0999 V2000
   -7.8408  -16.8385   13.9585 C   0  0  0  0  0  0  0  0  0  0  0  0
   -7.4729  -15.6208   14.7279 O   0  0  0  0  0  0  0  0  0  0  0  0
   -6.1433  -15.3107   14.6484 C   0  0  0  0  0  0  0  0  0  0  0  0
   -5.2908  -16.0543   14.1927 O   0  0  0  0  0  0  0  0  0  0  0  0
   -5.6005  -13.9948   14.9963 C   0  0  0  0  0  0  0  0  0  0  0  0
   -6.2611  -12.8135   14.6665 C   0  0  0  0  0  0  0  0  0  0  0  0
   -5.5539  -11.5902   14.6909 C   0  0  0  0  0  0  0  0  0  0  0  0
   -4.1862  -11.5725   15.0540 C   0  0  0  0  0  0  0  0  0  0  0  0
   -3.2648  -10.5417   15.2124 N   0  0  0  0  0  0  0  0  0  0  0  0
   -2.1572  -11.1274   15.6400 C   0  0  0  0  0  0  0  0  0  0  0  0
   -0.9661  -10.6376   16.1172 N   0  0  0  0  0  0  0  0  0  0  0  0
   -0.5619   -9.1803   16.2405 C   0  0  0  0  0  0  0  0  0  0  0  0
    0.6886   -8.7664   17.2934 C   0  0  0  0  0  0  0  0  0  0  0  0
    0.1767   -8.8547   18.7418 C   0  0  0  0  0  0  0  0  0  0  0  0
    1.8383   -9.7829   17.1636 C   0  0  0  0  0  0  0  0  0  0  0  0
    1.2278   -7.2841   17.1362 C   0  0  0  0  0  0  0  0  0  0  0  0
    0.7186   -6.2094   16.4181 C   0  0  0  0  0  0  0  0  0  0  0  0
    1.5620   -5.0494   16.4401 C   0  0  0  0  0  0  0  0  0  0  0  0
    2.6463   -5.2140   17.2650 C   0  0  0  0  0  0  0  0  0  0  0  0
    2.6103   -6.7244   18.0488 S   0  0  0  0  0  0  0  0  0  0  0  0
   -2.2716  -12.5095   15.6777 O   0  0  0  0  0  0  0  0  0  0  0  0
   -3.5787  -12.7721   15.3625 C   0  0  0  0  0  0  0  0  0  0  0  0
   -4.2278  -13.9981   15.3579 C   0  0  0  0  0  0  0  0  0  0  0  0
   -6.9773  -17.3450   13.4952 H   0  0  0  0  0  0  0  0  0  0  0  0
   -8.7712  -16.8361   13.3672 H   0  0  0  0  0  0  0  0  0  0  0  0
   -8.1752  -17.6448   14.5288 H   0  0  0  0  0  0  0  0  0  0  0  0
   -7.2966  -12.8312   14.3352 H   0  0  0  0  0  0  0  0  0  0  0  0
   -6.0498  -10.6591   14.4342 H   0  0  0  0  0  0  0  0  0  0  0  0
   -0.2226  -11.3181   16.2103 H   0  0  0  0  0  0  0  0  0  0  0  0
   -0.2683   -8.8481   15.2399 H   0  0  0  0  0  0  0  0  0  0  0  0
   -1.4426   -8.5948   16.5322 H   0  0  0  0  0  0  0  0  0  0  0  0
   -0.2697   -9.8372   18.9347 H   0  0  0  0  0  0  0  0  0  0  0  0
   -0.5986   -8.1033   18.9334 H   0  0  0  0  0  0  0  0  0  0  0  0
    0.9690   -8.7119   19.4850 H   0  0  0  0  0  0  0  0  0  0  0  0
    1.4928  -10.7914   17.4189 H   0  0  0  0  0  0  0  0  0  0  0  0
    2.1890   -9.8290   16.1407 H   0  0  0  0  0  0  0  0  0  0  0  0
    2.6708   -9.5822   17.8413 H   0  0  0  0  0  0  0  0  0  0  0  0
   -0.1929   -6.2668   15.8338 H   0  0  0  0  0  0  0  0  0  0  0  0
    1.3612   -4.1378   15.8904 H   0  0  0  0  0  0  0  0  0  0  0  0
    3.4243   -4.4986   17.4858 H   0  0  0  0  0  0  0  0  0  0  0  0
   -3.6829  -14.9149   15.5625 H   0  0  0  0  0  0  0  0  0  0  0  0
  1  2  1  0
  2  3  1  0
  3  4  2  0
  3  5  1  0
  5  6  2  0
  6  7  1  0
  7  8  2  0
  8  9  1  0
  9 10  2  0
 10 11  1  0
 11 12  1  0
 12 13  1  0
 13 14  1  0
 13 15  1  0
 13 16  1  0
 16 17  2  0
 17 18  1  0
 18 19  2  0
 19 20  1  0
 10 21  1  0
 21 22  1  0
 22 23  2  0
 23  5  1  0
 22  8  1  0
 20 16  1  0
  1 24  1  0
  1 25  1  0
  1 26  1  0
  6 27  1  0
  7 28  1  0
 11 29  1  0
 12 30  1  0
 12 31  1  0
 14 32  1  0
 14 33  1  0
 14 34  1  0
 15 35  1  0
 15 36  1  0
 15 37  1  0
 17 38  1  0
 18 39  1  0
 19 40  1  0
 23 41  1  0
M  END
>  <Energy>  (14) 
45.667734039041171

>  <compound_id>  (14) 
11102

>  <target_id>  (14) 
1

>  <reference_id>  (14) 
66

>  <inspiration_ids>  (14) 
[2, 66]

>  <energy_score>  (14) 
-13.259012185866482

>  <distance_score>  (14) 
13.699233358532538

>  <path>  (14) 
/opt/xchem-fragalysis-2/maxwin/BulkDock/SCRATCH/511014/C11102-P66/C11102-P66.minimised.mol

>  <scratch_subdir>  (14) 
/opt/xchem-fragalysis-2/maxwin/BulkDock/SCRATCH/511014/C11102-P66

>  <fragmenstein_runtime>  (14) 
20.74833035469055

>  <fragmenstein_outcome>  (14) 
too moved

>  <fragmenstein_mode>  (14) 
expansion

>  <fragmenstein_error>  (14) 


$$$$
C11103-P2
     RDKit          3D

 42 44  0  0  0  0  0  0  0  0999 V2000
    0.2479  -13.3251   12.9103 C   0  0  0  0  0  0  0  0  0  0  0  0
    0.7426  -13.4642   11.5136 C   0  0  0  0  0  0  0  0  0  0  0  0
   -0.0088  -15.0275   10.9191 N   0  0  0  0  0  0  0  0  0  0  0  0
    0.1916  -16.7433   11.0874 C   0  0  0  0  0  0  0  0  0  0  0  0
   -1.0551  -18.0681   10.7023 C   0  0  0  0  0  0  0  0  0  0  0  0
   -1.5801  -18.3040    9.5278 N   0  0  0  0  0  0  0  0  0  0  0  0
   -2.8659  -18.8320    9.7570 C   0  0  0  0  0  0  0  0  0  0  0  0
   -3.9692  -18.1950    8.9768 C   0  0  0  0  0  0  0  0  0  0  0  0
   -5.9505  -18.3747    9.1048 C   0  0  0  0  0  0  0  0  0  0  0  0
   -6.4506  -19.3178   10.6696 C   0  0  0  0  0  0  0  0  0  0  0  0
   -4.9654  -19.6010   11.7774 C   0  0  0  0  0  0  0  0  0  0  0  0
   -3.2455  -19.4579   11.0937 C   0  0  0  0  0  0  0  0  0  0  0  0
   -1.7946  -19.0014   11.7420 O   0  0  0  0  0  0  0  0  0  0  0  0
    2.1566  -12.0917   11.0306 C   0  0  0  0  0  0  0  0  0  0  0  0
    3.1804  -12.4809    9.9727 C   0  0  0  0  0  0  0  0  0  0  0  0
    2.8539  -10.4815   11.6000 N   0  0  0  0  0  0  0  0  0  0  0  0
    3.9220  -10.0539   13.0454 C   0  0  0  0  0  0  0  0  0  0  0  0
    4.4545  -10.7827   13.8783 O   0  0  0  0  0  0  0  0  0  0  0  0
    4.1988   -8.1978   13.2525 C   0  0  0  0  0  0  0  0  0  0  0  0
    5.1295   -7.2860   13.7019 C   0  0  0  0  0  0  0  0  0  0  0  0
    4.2852   -6.1512   14.3760 C   0  0  0  0  0  0  0  0  0  0  0  0
    3.9167   -5.3545   13.2914 C   0  0  0  0  0  0  0  0  0  0  0  0
    3.9278   -6.5103   11.9619 S   0  0  0  0  0  0  0  0  0  0  0  0
   -0.3530  -14.1614   13.2002 H   0  0  0  0  0  0  0  0  0  0  0  0
   -0.2771  -12.3854   13.0123 H   0  0  0  0  0  0  0  0  0  0  0  0
    1.0180  -13.2770   13.6354 H   0  0  0  0  0  0  0  0  0  0  0  0
   -0.0659  -12.8895   11.0562 H   0  0  0  0  0  0  0  0  0  0  0  0
   -0.9860  -14.8912   11.1867 H   0  0  0  0  0  0  0  0  0  0  0  0
    1.0292  -16.9866   10.4254 H   0  0  0  0  0  0  0  0  0  0  0  0
    0.4391  -16.9288   12.1205 H   0  0  0  0  0  0  0  0  0  0  0  0
   -3.5815  -17.4207    8.2761 H   0  0  0  0  0  0  0  0  0  0  0  0
   -6.6550  -17.8764    8.4613 H   0  0  0  0  0  0  0  0  0  0  0  0
   -7.4154  -19.7301   10.9077 H   0  0  0  0  0  0  0  0  0  0  0  0
   -5.0034  -20.2141   12.6160 H   0  0  0  0  0  0  0  0  0  0  0  0
    1.2876  -11.4317   10.9500 H   0  0  0  0  0  0  0  0  0  0  0  0
    3.4532  -11.6220    9.3535 H   0  0  0  0  0  0  0  0  0  0  0  0
    4.0314  -12.8900   10.4981 H   0  0  0  0  0  0  0  0  0  0  0  0
    2.9831  -13.3002    9.3038 H   0  0  0  0  0  0  0  0  0  0  0  0
    2.5086   -9.6501   11.1606 H   0  0  0  0  0  0  0  0  0  0  0  0
    6.0738   -7.7037   14.0423 H   0  0  0  0  0  0  0  0  0  0  0  0
    4.4790   -5.7114   15.3531 H   0  0  0  0  0  0  0  0  0  0  0  0
    3.6288   -4.3159   13.2029 H   0  0  0  0  0  0  0  0  0  0  0  0
  1  2  1  0
  2  3  1  0
  3  4  1  0
  4  5  1  0
  5  6  2  0
  6  7  1  0
  7  8  2  0
  8  9  1  0
  9 10  2  0
 10 11  1  0
 11 12  2  0
 12 13  1  0
  2 14  1  0
 14 15  1  0
 14 16  1  0
 16 17  1  0
 17 18  2  0
 17 19  1  0
 19 20  2  0
 20 21  1  0
 21 22  2  0
 22 23  1  0
 13  5  1  0
 23 19  1  0
 12  7  1  0
  1 24  1  0
  1 25  1  0
  1 26  1  0
  2 27  1  0
  3 28  1  0
  4 29  1  0
  4 30  1  0
  8 31  1  0
  9 32  1  0
 10 33  1  0
 11 34  1  0
 14 35  1  0
 15 36  1  0
 15 37  1  0
 15 38  1  0
 16 39  1  0
 20 40  1  0
 21 41  1  0
 22 42  1  0
M  END
>  <Energy>  (15) 
925.99857412548249

>  <compound_id>  (15) 
11103

>  <target_id>  (15) 
1

>  <reference_id>  (15) 
2

>  <inspiration_ids>  (15) 
[2, 66]

>  <energy_score>  (15) 
827.9304625440141

>  <distance_score>  (15) 
10.12958332605315

>  <path>  (15) 
/opt/xchem-fragalysis-2/maxwin/BulkDock/SCRATCH/511014/C11103-P2/C11103-P2.minimised.mol

>  <scratch_subdir>  (15) 
/opt/xchem-fragalysis-2/maxwin/BulkDock/SCRATCH/511014/C11103-P2

>  <fragmenstein_runtime>  (15) 
22.6129629611969

>  <fragmenstein_outcome>  (15) 
too moved

>  <fragmenstein_mode>  (15) 
expansion

>  <fragmenstein_error>  (15) 


$$$$
C11103-P66
     RDKit          3D

 42 44  0  0  0  0  0  0  0  0999 V2000
    2.8177   -6.9541   11.6394 C   0  0  0  0  0  0  0  0  0  0  0  0
    3.6408   -8.2835   11.9360 C   0  0  0  0  0  0  0  0  0  0  0  0
    2.9830  -10.0237   11.2423 N   0  0  0  0  0  0  0  0  0  0  0  0
    1.3108  -10.7465   11.2294 C   0  0  0  0  0  0  0  0  0  0  0  0
    0.8001  -12.4153   11.2959 C   0  0  0  0  0  0  0  0  0  0  0  0
    1.4481  -13.4285   10.8723 N   0  0  0  0  0  0  0  0  0  0  0  0
    0.7643  -14.7037   10.8313 C   0  0  0  0  0  0  0  0  0  0  0  0
    1.0846  -15.9902   10.2869 C   0  0  0  0  0  0  0  0  0  0  0  0
    0.0735  -16.8851    9.9148 C   0  0  0  0  0  0  0  0  0  0  0  0
   -1.2390  -16.4807   10.0291 C   0  0  0  0  0  0  0  0  0  0  0  0
   -1.5309  -15.2647   10.6827 C   0  0  0  0  0  0  0  0  0  0  0  0
   -0.4884  -14.3983   11.1293 C   0  0  0  0  0  0  0  0  0  0  0  0
   -0.3848  -13.0133   11.6686 O   0  0  0  0  0  0  0  0  0  0  0  0
    5.2096   -7.9154   13.3488 C   0  0  0  0  0  0  0  0  0  0  0  0
    4.5038   -6.4734   14.3355 C   0  0  0  0  0  0  0  0  0  0  0  0
    7.1569   -7.3837   13.2488 N   0  0  0  0  0  0  0  0  0  0  0  0
    8.3084   -6.2360   14.5123 C   0  0  0  0  0  0  0  0  0  0  0  0
    7.6646   -5.9965   15.5183 O   0  0  0  0  0  0  0  0  0  0  0  0
   10.0964   -5.0717   14.5399 C   0  0  0  0  0  0  0  0  0  0  0  0
   10.0952   -3.5146   14.7648 C   0  0  0  0  0  0  0  0  0  0  0  0
   11.3365   -2.8413   14.6403 C   0  0  0  0  0  0  0  0  0  0  0  0
   12.1993   -3.4541   15.4889 C   0  0  0  0  0  0  0  0  0  0  0  0
   11.4345   -4.7959   16.2199 S   0  0  0  0  0  0  0  0  0  0  0  0
    3.5670   -6.1357   11.6516 H   0  0  0  0  0  0  0  0  0  0  0  0
    2.1273   -6.3139   12.1706 H   0  0  0  0  0  0  0  0  0  0  0  0
    2.0994   -7.2334   10.8796 H   0  0  0  0  0  0  0  0  0  0  0  0
    4.0127   -8.1578   10.8823 H   0  0  0  0  0  0  0  0  0  0  0  0
    3.1714  -10.4813   12.1433 H   0  0  0  0  0  0  0  0  0  0  0  0
    0.6589  -10.4030   11.9924 H   0  0  0  0  0  0  0  0  0  0  0  0
    0.9248  -10.1845   10.3969 H   0  0  0  0  0  0  0  0  0  0  0  0
    2.1090  -16.2230   10.0102 H   0  0  0  0  0  0  0  0  0  0  0  0
    0.3270  -17.8345    9.4505 H   0  0  0  0  0  0  0  0  0  0  0  0
   -2.0398  -17.1215    9.6694 H   0  0  0  0  0  0  0  0  0  0  0  0
   -2.5645  -15.0180   10.8391 H   0  0  0  0  0  0  0  0  0  0  0  0
    5.1736   -6.9956   12.7694 H   0  0  0  0  0  0  0  0  0  0  0  0
    4.1712   -5.6467   13.6823 H   0  0  0  0  0  0  0  0  0  0  0  0
    3.6464   -6.6542   14.9906 H   0  0  0  0  0  0  0  0  0  0  0  0
    5.2024   -6.1503   15.1282 H   0  0  0  0  0  0  0  0  0  0  0  0
    7.6726   -7.5004   12.3893 H   0  0  0  0  0  0  0  0  0  0  0  0
    9.1617   -2.9638   14.6343 H   0  0  0  0  0  0  0  0  0  0  0  0
   11.4772   -1.8274   14.2871 H   0  0  0  0  0  0  0  0  0  0  0  0
   13.1587   -3.1080   15.8472 H   0  0  0  0  0  0  0  0  0  0  0  0
  1  2  1  0
  2  3  1  0
  3  4  1  0
  4  5  1  0
  5  6  2  0
  6  7  1  0
  7  8  2  0
  8  9  1  0
  9 10  2  0
 10 11  1  0
 11 12  2  0
 12 13  1  0
  2 14  1  0
 14 15  1  0
 14 16  1  0
 16 17  1  0
 17 18  2  0
 17 19  1  0
 19 20  2  0
 20 21  1  0
 21 22  2  0
 22 23  1  0
 13  5  1  0
 23 19  1  0
 12  7  1  0
  1 24  1  0
  1 25  1  0
  1 26  1  0
  2 27  1  0
  3 28  1  0
  4 29  1  0
  4 30  1  0
  8 31  1  0
  9 32  1  0
 10 33  1  0
 11 34  1  0
 14 35  1  0
 15 36  1  0
 15 37  1  0
 15 38  1  0
 16 39  1  0
 20 40  1  0
 21 41  1  0
 22 42  1  0
M  END
>  <Energy>  (16) 
983.33364849725194

>  <compound_id>  (16) 
11103

>  <target_id>  (16) 
1

>  <reference_id>  (16) 
66

>  <inspiration_ids>  (16) 
[2, 66]

>  <energy_score>  (16) 
885.2655369157977

>  <distance_score>  (16) 
10.216301027000856

>  <path>  (16) 
/opt/xchem-fragalysis-2/maxwin/BulkDock/SCRATCH/511014/C11103-P66/C11103-P66.minimised.mol

>  <scratch_subdir>  (16) 
/opt/xchem-fragalysis-2/maxwin/BulkDock/SCRATCH/511014/C11103-P66

>  <fragmenstein_runtime>  (16) 
18.819562435150146

>  <fragmenstein_outcome>  (16) 
too moved

>  <fragmenstein_mode>  (16) 
expansion

>  <fragmenstein_error>  (16) 


$$$$
C11104-P2
     RDKit          3D

 36 39  0  0  0  0  0  0  0  0999 V2000
   10.2532   -2.4271   15.2658 C   0  0  0  0  0  0  0  0  0  0  0  0
   11.3245   -2.3919   14.4486 C   0  0  0  0  0  0  0  0  0  0  0  0
   11.1187   -3.9702   13.6887 S   0  0  0  0  0  0  0  0  0  0  0  0
    9.2131   -4.5365   14.7590 C   0  0  0  0  0  0  0  0  0  0  0  0
    8.3840   -6.6181   14.5403 C   0  0  0  0  0  0  0  0  0  0  0  0
    8.0610   -7.2086   12.9544 N   0  0  0  0  0  0  0  0  0  0  0  0
    6.8509   -7.8544   12.7568 O   0  0  0  0  0  0  0  0  0  0  0  0
    5.8964   -8.1590   13.8353 C   0  0  0  0  0  0  0  0  0  0  0  0
    4.4582   -9.6593   13.5019 C   0  0  0  0  0  0  0  0  0  0  0  0
    3.2360  -10.4087   11.9594 C   0  0  0  0  0  0  0  0  0  0  0  0
    1.6844  -11.1705   11.4822 C   0  0  0  0  0  0  0  0  0  0  0  0
    0.1510  -12.2756   12.0010 S   0  0  0  0  0  0  0  0  0  0  0  0
    0.0725  -14.0837   11.9978 C   0  0  0  0  0  0  0  0  0  0  0  0
   -0.4734  -14.7017   13.0415 N   0  0  0  0  0  0  0  0  0  0  0  0
   -0.5776  -16.0343   12.6861 C   0  0  0  0  0  0  0  0  0  0  0  0
   -0.8995  -17.1849   13.4201 C   0  0  0  0  0  0  0  0  0  0  0  0
   -0.9274  -18.4224   12.7473 C   0  0  0  0  0  0  0  0  0  0  0  0
   -0.7043  -18.5000   11.3667 C   0  0  0  0  0  0  0  0  0  0  0  0
   -0.3787  -17.3571   10.6245 C   0  0  0  0  0  0  0  0  0  0  0  0
   -0.2937  -16.1662   11.3456 C   0  0  0  0  0  0  0  0  0  0  0  0
    0.1008  -14.9332   10.9046 O   0  0  0  0  0  0  0  0  0  0  0  0
    6.7829   -7.4166   14.9699 N   0  0  0  0  0  0  0  0  0  0  0  0
   10.3727   -3.8281   15.4773 C   0  0  0  0  0  0  0  0  0  0  0  0
    9.4107   -1.7714   15.0649 H   0  0  0  0  0  0  0  0  0  0  0  0
   11.8412   -1.6086   13.9132 H   0  0  0  0  0  0  0  0  0  0  0  0
    3.9872  -10.1972   14.3199 H   0  0  0  0  0  0  0  0  0  0  0  0
    5.2041  -10.5129   13.5171 H   0  0  0  0  0  0  0  0  0  0  0  0
    3.7928  -11.0712   11.2188 H   0  0  0  0  0  0  0  0  0  0  0  0
    3.1017   -9.5497   11.2492 H   0  0  0  0  0  0  0  0  0  0  0  0
    2.1324  -11.8862   10.7867 H   0  0  0  0  0  0  0  0  0  0  0  0
    1.1764  -10.3519   10.9649 H   0  0  0  0  0  0  0  0  0  0  0  0
   -1.1102  -17.1215   14.4815 H   0  0  0  0  0  0  0  0  0  0  0  0
   -1.1924  -19.3244   13.2977 H   0  0  0  0  0  0  0  0  0  0  0  0
   -0.7907  -19.4645   10.8689 H   0  0  0  0  0  0  0  0  0  0  0  0
   -0.1709  -17.4026    9.5639 H   0  0  0  0  0  0  0  0  0  0  0  0
   11.1242   -4.3263   16.1161 H   0  0  0  0  0  0  0  0  0  0  0  0
  1  2  2  0
  2  3  1  0
  3  4  1  0
  4  5  1  0
  5  6  2  0
  6  7  1  0
  7  8  1  0
  8  9  1  0
  9 10  1  0
 10 11  1  0
 11 12  1  0
 12 13  1  0
 13 14  2  0
 14 15  1  0
 15 16  2  0
 16 17  1  0
 17 18  2  0
 18 19  1  0
 19 20  2  0
 20 21  1  0
  8 22  2  0
  4 23  2  0
 23  1  1  0
 22  5  1  0
 21 13  1  0
 20 15  1  0
  1 24  1  0
  2 25  1  0
  9 26  1  0
  9 27  1  0
 10 28  1  0
 10 29  1  0
 11 30  1  0
 11 31  1  0
 16 32  1  0
 17 33  1  0
 18 34  1  0
 19 35  1  0
 23 36  1  0
M  END
>  <Energy>  (17) 
836.41810823878654

>  <compound_id>  (17) 
11104

>  <target_id>  (17) 
1

>  <reference_id>  (17) 
2

>  <inspiration_ids>  (17) 
[2, 66]

>  <energy_score>  (17) 
755.6900926916135

>  <distance_score>  (17) 
9.605748538552184

>  <path>  (17) 
/opt/xchem-fragalysis-2/maxwin/BulkDock/SCRATCH/511014/C11104-P2/C11104-P2.minimised.mol

>  <scratch_subdir>  (17) 
/opt/xchem-fragalysis-2/maxwin/BulkDock/SCRATCH/511014/C11104-P2

>  <fragmenstein_runtime>  (17) 
11.706491708755493

>  <fragmenstein_outcome>  (17) 
too moved

>  <fragmenstein_mode>  (17) 
expansion

>  <fragmenstein_error>  (17) 


$$$$
C11104-P66
     RDKit          3D

 36 39  0  0  0  0  0  0  0  0999 V2000
   12.7009   -5.1299   16.5890 C   0  0  0  0  0  0  0  0  0  0  0  0
   11.9568   -4.0674   16.2148 C   0  0  0  0  0  0  0  0  0  0  0  0
   10.7327   -4.4869   15.1200 S   0  0  0  0  0  0  0  0  0  0  0  0
   10.8477   -6.7259   15.5888 C   0  0  0  0  0  0  0  0  0  0  0  0
    9.9234   -8.8460   15.3648 C   0  0  0  0  0  0  0  0  0  0  0  0
    9.8367   -9.9520   16.2547 N   0  0  0  0  0  0  0  0  0  0  0  0
    8.5560  -10.6877   15.9326 O   0  0  0  0  0  0  0  0  0  0  0  0
    8.4543  -11.1064   14.3300 C   0  0  0  0  0  0  0  0  0  0  0  0
    6.7810  -12.2099   13.4444 C   0  0  0  0  0  0  0  0  0  0  0  0
    6.7632  -13.8182   12.1593 C   0  0  0  0  0  0  0  0  0  0  0  0
    5.9951  -14.6569   10.5612 C   0  0  0  0  0  0  0  0  0  0  0  0
    5.4332  -16.5512    9.7530 S   0  0  0  0  0  0  0  0  0  0  0  0
    3.6764  -16.9686    9.4900 C   0  0  0  0  0  0  0  0  0  0  0  0
    2.5828  -16.2459    9.6936 N   0  0  0  0  0  0  0  0  0  0  0  0
    1.5141  -17.1354    9.5656 C   0  0  0  0  0  0  0  0  0  0  0  0
    0.1309  -17.0132    9.8186 C   0  0  0  0  0  0  0  0  0  0  0  0
   -0.7195  -18.0936    9.5203 C   0  0  0  0  0  0  0  0  0  0  0  0
   -0.1991  -19.2832    9.0034 C   0  0  0  0  0  0  0  0  0  0  0  0
    1.1791  -19.4484    8.8060 C   0  0  0  0  0  0  0  0  0  0  0  0
    1.9845  -18.3500    9.1109 C   0  0  0  0  0  0  0  0  0  0  0  0
    3.3515  -18.2604    9.0546 O   0  0  0  0  0  0  0  0  0  0  0  0
    9.8513  -10.3559   14.2985 N   0  0  0  0  0  0  0  0  0  0  0  0
   12.1337   -6.4222   16.1803 C   0  0  0  0  0  0  0  0  0  0  0  0
   13.6388   -5.0357   17.1201 H   0  0  0  0  0  0  0  0  0  0  0  0
   12.1745   -3.0248   16.3931 H   0  0  0  0  0  0  0  0  0  0  0  0
    5.8860  -11.5352   13.3975 H   0  0  0  0  0  0  0  0  0  0  0  0
    6.3652  -12.9840   14.1269 H   0  0  0  0  0  0  0  0  0  0  0  0
    7.5493  -13.6126   11.4709 H   0  0  0  0  0  0  0  0  0  0  0  0
    5.7549  -13.6582   11.9993 H   0  0  0  0  0  0  0  0  0  0  0  0
    6.8712  -14.6139    9.8934 H   0  0  0  0  0  0  0  0  0  0  0  0
    5.2019  -14.0274   10.1310 H   0  0  0  0  0  0  0  0  0  0  0  0
   -0.2655  -16.0953   10.2388 H   0  0  0  0  0  0  0  0  0  0  0  0
   -1.7899  -18.0079    9.6955 H   0  0  0  0  0  0  0  0  0  0  0  0
   -0.8666  -20.1061    8.7616 H   0  0  0  0  0  0  0  0  0  0  0  0
    1.6018  -20.3770    8.4423 H   0  0  0  0  0  0  0  0  0  0  0  0
   12.6531   -7.3091   16.2894 H   0  0  0  0  0  0  0  0  0  0  0  0
  1  2  2  0
  2  3  1  0
  3  4  1  0
  4  5  1  0
  5  6  2  0
  6  7  1  0
  7  8  1  0
  8  9  1  0
  9 10  1  0
 10 11  1  0
 11 12  1  0
 12 13  1  0
 13 14  2  0
 14 15  1  0
 15 16  2  0
 16 17  1  0
 17 18  2  0
 18 19  1  0
 19 20  2  0
 20 21  1  0
  8 22  2  0
  4 23  2  0
 23  1  1  0
 22  5  1  0
 21 13  1  0
 20 15  1  0
  1 24  1  0
  2 25  1  0
  9 26  1  0
  9 27  1  0
 10 28  1  0
 10 29  1  0
 11 30  1  0
 11 31  1  0
 16 32  1  0
 17 33  1  0
 18 34  1  0
 19 35  1  0
 23 36  1  0
M  END
>  <Energy>  (18) 
950.63669157611184

>  <compound_id>  (18) 
11104

>  <target_id>  (18) 
1

>  <reference_id>  (18) 
66

>  <inspiration_ids>  (18) 
[2, 66]

>  <energy_score>  (18) 
869.9086760289447

>  <distance_score>  (18) 
10.091927631727444

>  <path>  (18) 
/opt/xchem-fragalysis-2/maxwin/BulkDock/SCRATCH/511014/C11104-P66/C11104-P66.minimised.mol

>  <scratch_subdir>  (18) 
/opt/xchem-fragalysis-2/maxwin/BulkDock/SCRATCH/511014/C11104-P66

>  <fragmenstein_runtime>  (18) 
16.748287439346313

>  <fragmenstein_outcome>  (18) 
too moved

>  <fragmenstein_mode>  (18) 
expansion

>  <fragmenstein_error>  (18) 


$$$$
C11105-P2
     RDKit          3D

 33 35  0  0  0  0  0  0  0  0999 V2000
    0.3735   -7.8239    9.8968 O   0  0  0  0  0  0  0  0  0  0  0  0
    1.1533   -8.3929   10.6800 C   0  0  0  0  0  0  0  0  0  0  0  0
    2.4501   -7.1225   11.3543 C   0  0  0  0  0  0  0  0  0  0  0  0
    2.7937   -5.2863   11.4758 N   0  0  0  0  0  0  0  0  0  0  0  0
    3.3977   -3.7843   11.8893 S   0  0  0  0  0  0  0  0  0  0  0  0
    4.7800   -3.6349   11.5318 O   0  0  0  0  0  0  0  0  0  0  0  0
    2.5221   -2.8986   11.1476 O   0  0  0  0  0  0  0  0  0  0  0  0
    3.3081   -3.0073   13.4759 C   0  0  0  0  0  0  0  0  0  0  0  0
    4.0999   -1.9875   13.9947 C   0  0  0  0  0  0  0  0  0  0  0  0
    3.7411   -1.6428   15.3214 C   0  0  0  0  0  0  0  0  0  0  0  0
    2.6868   -2.4077   15.7644 C   0  0  0  0  0  0  0  0  0  0  0  0
    2.1176   -3.4928   14.5605 S   0  0  0  0  0  0  0  0  0  0  0  0
    1.0894  -10.1068   11.2882 N   0  0  0  0  0  0  0  0  0  0  0  0
   -0.1543  -11.3893   11.0518 C   0  0  0  0  0  0  0  0  0  0  0  0
    0.2850  -12.6791   11.5107 C   0  0  0  0  0  0  0  0  0  0  0  0
   -0.2662  -14.0321   11.4928 C   0  0  0  0  0  0  0  0  0  0  0  0
   -1.4324  -14.2971   10.7925 C   0  0  0  0  0  0  0  0  0  0  0  0
   -2.0387  -13.1187   10.2647 C   0  0  0  0  0  0  0  0  0  0  0  0
   -3.3309  -13.1302    9.7714 O   0  0  0  0  0  0  0  0  0  0  0  0
   -3.6235  -11.8211    9.5935 C   0  0  0  0  0  0  0  0  0  0  0  0
   -2.6696  -10.9755    9.9141 N   0  0  0  0  0  0  0  0  0  0  0  0
   -1.5690  -11.7179   10.4370 C   0  0  0  0  0  0  0  0  0  0  0  0
    1.5866   -6.8411   11.8897 H   0  0  0  0  0  0  0  0  0  0  0  0
    3.3467   -7.5570   11.7569 H   0  0  0  0  0  0  0  0  0  0  0  0
    2.6033   -4.9531   10.5197 H   0  0  0  0  0  0  0  0  0  0  0  0
    4.9140   -1.5421   13.4312 H   0  0  0  0  0  0  0  0  0  0  0  0
    4.2311   -0.8860   15.9211 H   0  0  0  0  0  0  0  0  0  0  0  0
    2.2028   -2.3729   16.7311 H   0  0  0  0  0  0  0  0  0  0  0  0
    1.9089  -10.3030   11.8495 H   0  0  0  0  0  0  0  0  0  0  0  0
    1.3308  -12.7030   11.2609 H   0  0  0  0  0  0  0  0  0  0  0  0
    0.3290  -14.8622   11.8543 H   0  0  0  0  0  0  0  0  0  0  0  0
   -1.8748  -15.2761   10.6844 H   0  0  0  0  0  0  0  0  0  0  0  0
   -4.5994  -11.5913    9.1922 H   0  0  0  0  0  0  0  0  0  0  0  0
  1  2  2  0
  2  3  1  0
  3  4  1  0
  4  5  1  0
  5  6  2  0
  5  7  2  0
  5  8  1  0
  8  9  2  0
  9 10  1  0
 10 11  2  0
 11 12  1  0
  2 13  1  0
 13 14  1  0
 14 15  2  0
 15 16  1  0
 16 17  2  0
 17 18  1  0
 18 19  1  0
 19 20  1  0
 20 21  2  0
 21 22  1  0
 12  8  1  0
 22 14  1  0
 22 18  2  0
  3 23  1  0
  3 24  1  0
  4 25  1  0
  9 26  1  0
 10 27  1  0
 11 28  1  0
 13 29  1  0
 15 30  1  0
 16 31  1  0
 17 32  1  0
 20 33  1  0
M  END
>  <Energy>  (19) 
362.09062713097092

>  <compound_id>  (19) 
11105

>  <target_id>  (19) 
1

>  <reference_id>  (19) 
2

>  <inspiration_ids>  (19) 
[2, 66]

>  <energy_score>  (19) 
291.02879113948006

>  <distance_score>  (19) 
11.608608211628624

>  <path>  (19) 
/opt/xchem-fragalysis-2/maxwin/BulkDock/SCRATCH/511014/C11105-P2/C11105-P2.minimised.mol

>  <scratch_subdir>  (19) 
/opt/xchem-fragalysis-2/maxwin/BulkDock/SCRATCH/511014/C11105-P2

>  <fragmenstein_runtime>  (19) 
12.3826744556427

>  <fragmenstein_outcome>  (19) 
too moved

>  <fragmenstein_mode>  (19) 
expansion

>  <fragmenstein_error>  (19) 


$$$$
C11105-P66
     RDKit          3D

 33 35  0  0  0  0  0  0  0  0999 V2000
    3.5770  -10.4474   10.6049 O   0  0  0  0  0  0  0  0  0  0  0  0
    3.1764  -10.4588   11.7455 C   0  0  0  0  0  0  0  0  0  0  0  0
    4.3146   -9.5687   13.3826 C   0  0  0  0  0  0  0  0  0  0  0  0
    5.5746   -7.8869   13.9016 N   0  0  0  0  0  0  0  0  0  0  0  0
    6.7059   -6.5254   15.5669 S   0  0  0  0  0  0  0  0  0  0  0  0
    6.0382   -6.4254   16.8416 O   0  0  0  0  0  0  0  0  0  0  0  0
    7.9259   -7.1576   15.0754 O   0  0  0  0  0  0  0  0  0  0  0  0
    8.0846   -4.4745   15.6747 C   0  0  0  0  0  0  0  0  0  0  0  0
    9.6331   -3.9439   15.0705 C   0  0  0  0  0  0  0  0  0  0  0  0
    9.9629   -2.5456   15.0130 C   0  0  0  0  0  0  0  0  0  0  0  0
    8.8318   -1.8011   14.9095 C   0  0  0  0  0  0  0  0  0  0  0  0
    7.3653   -2.5933   14.7404 S   0  0  0  0  0  0  0  0  0  0  0  0
    1.6802  -11.2650   12.2014 N   0  0  0  0  0  0  0  0  0  0  0  0
    0.6013  -12.2311   11.3247 C   0  0  0  0  0  0  0  0  0  0  0  0
    0.4680  -13.5229   11.9954 C   0  0  0  0  0  0  0  0  0  0  0  0
   -0.1158  -14.7904   11.6554 C   0  0  0  0  0  0  0  0  0  0  0  0
   -1.0786  -14.8563   10.7041 C   0  0  0  0  0  0  0  0  0  0  0  0
   -1.4754  -13.5648   10.4019 C   0  0  0  0  0  0  0  0  0  0  0  0
   -2.7538  -13.3061    9.9129 O   0  0  0  0  0  0  0  0  0  0  0  0
   -2.8432  -11.9489    9.9556 C   0  0  0  0  0  0  0  0  0  0  0  0
   -1.7647  -11.3412   10.4151 N   0  0  0  0  0  0  0  0  0  0  0  0
   -0.7802  -12.2979   10.7442 C   0  0  0  0  0  0  0  0  0  0  0  0
    3.8334  -10.1464   14.1640 H   0  0  0  0  0  0  0  0  0  0  0  0
    5.0974  -10.3779   13.5368 H   0  0  0  0  0  0  0  0  0  0  0  0
    6.5459   -8.2115   13.6825 H   0  0  0  0  0  0  0  0  0  0  0  0
   10.4706   -4.6168   14.9516 H   0  0  0  0  0  0  0  0  0  0  0  0
   10.9581   -2.1528   14.8450 H   0  0  0  0  0  0  0  0  0  0  0  0
    8.8123   -0.7763   14.5699 H   0  0  0  0  0  0  0  0  0  0  0  0
    1.5937  -11.2283   13.1607 H   0  0  0  0  0  0  0  0  0  0  0  0
    0.6867  -13.4468   13.0539 H   0  0  0  0  0  0  0  0  0  0  0  0
    0.0818  -15.6730   12.2431 H   0  0  0  0  0  0  0  0  0  0  0  0
   -1.6542  -15.7344   10.4594 H   0  0  0  0  0  0  0  0  0  0  0  0
   -3.7691  -11.5044    9.6228 H   0  0  0  0  0  0  0  0  0  0  0  0
  1  2  2  0
  2  3  1  0
  3  4  1  0
  4  5  1  0
  5  6  2  0
  5  7  2  0
  5  8  1  0
  8  9  2  0
  9 10  1  0
 10 11  2  0
 11 12  1  0
  2 13  1  0
 13 14  1  0
 14 15  2  0
 15 16  1  0
 16 17  2  0
 17 18  1  0
 18 19  1  0
 19 20  1  0
 20 21  2  0
 21 22  1  0
 12  8  1  0
 22 14  1  0
 22 18  2  0
  3 23  1  0
  3 24  1  0
  4 25  1  0
  9 26  1  0
 10 27  1  0
 11 28  1  0
 13 29  1  0
 15 30  1  0
 16 31  1  0
 17 32  1  0
 20 33  1  0
M  END
>  <Energy>  (20) 
886.37156801552305

>  <compound_id>  (20) 
11105

>  <target_id>  (20) 
1

>  <reference_id>  (20) 
66

>  <inspiration_ids>  (20) 
[2, 66]

>  <energy_score>  (20) 
815.309732024039

>  <distance_score>  (20) 
10.165764630618064

>  <path>  (20) 
/opt/xchem-fragalysis-2/maxwin/BulkDock/SCRATCH/511014/C11105-P66/C11105-P66.minimised.mol

>  <scratch_subdir>  (20) 
/opt/xchem-fragalysis-2/maxwin/BulkDock/SCRATCH/511014/C11105-P66

>  <fragmenstein_runtime>  (20) 
12.056618213653564

>  <fragmenstein_outcome>  (20) 
too moved

>  <fragmenstein_mode>  (20) 
expansion

>  <fragmenstein_error>  (20) 


$$$$
C11106-P2
     RDKit          3D

 38 41  0  0  0  0  0  0  0  0999 V2000
    6.9873  -13.7888   13.3431 O   0  0  0  0  0  0  0  0  0  0  0  0
    6.2354  -13.1323   12.8121 C   0  0  0  0  0  0  0  0  0  0  0  0
    5.2514  -13.7648   11.3539 N   0  0  0  0  0  0  0  0  0  0  0  0
    5.3566  -15.2740   10.4565 C   0  0  0  0  0  0  0  0  0  0  0  0
    4.4281  -16.7844   10.1538 C   0  0  0  0  0  0  0  0  0  0  0  0
    2.9110  -16.9506    9.8032 C   0  0  0  0  0  0  0  0  0  0  0  0
    2.2305  -16.7604    8.6735 N   0  0  0  0  0  0  0  0  0  0  0  0
    1.0077  -17.4221    8.8768 C   0  0  0  0  0  0  0  0  0  0  0  0
   -0.1220  -17.6222    8.0549 C   0  0  0  0  0  0  0  0  0  0  0  0
   -1.2322  -18.3257    8.5694 C   0  0  0  0  0  0  0  0  0  0  0  0
   -1.2192  -18.8445    9.8675 C   0  0  0  0  0  0  0  0  0  0  0  0
   -0.0966  -18.6785   10.6901 C   0  0  0  0  0  0  0  0  0  0  0  0
    0.9782  -17.9679   10.1460 C   0  0  0  0  0  0  0  0  0  0  0  0
    2.1881  -17.6992   10.7266 O   0  0  0  0  0  0  0  0  0  0  0  0
    6.0423  -11.4020   13.1064 N   0  0  0  0  0  0  0  0  0  0  0  0
    7.0760  -10.2184   14.1207 C   0  0  0  0  0  0  0  0  0  0  0  0
    6.8398   -8.4828   13.9866 N   0  0  0  0  0  0  0  0  0  0  0  0
    8.1943   -7.3547   14.6652 N   0  0  0  0  0  0  0  0  0  0  0  0
    9.6065   -7.8465   15.0655 C   0  0  0  0  0  0  0  0  0  0  0  0
   10.9667   -6.5854   15.5178 C   0  0  0  0  0  0  0  0  0  0  0  0
   12.1398   -6.2982   16.2410 C   0  0  0  0  0  0  0  0  0  0  0  0
   12.7051   -4.9963   16.6055 C   0  0  0  0  0  0  0  0  0  0  0  0
   12.0441   -3.9327   16.0964 C   0  0  0  0  0  0  0  0  0  0  0  0
   10.8516   -4.3631   14.9722 S   0  0  0  0  0  0  0  0  0  0  0  0
    9.0738  -10.1100   15.3615 S   0  0  0  0  0  0  0  0  0  0  0  0
    4.5704  -13.0593   11.0701 H   0  0  0  0  0  0  0  0  0  0  0  0
    6.3450  -15.2749    9.9779 H   0  0  0  0  0  0  0  0  0  0  0  0
    4.7906  -14.7734    9.6613 H   0  0  0  0  0  0  0  0  0  0  0  0
    4.9614  -17.2187    9.2960 H   0  0  0  0  0  0  0  0  0  0  0  0
    4.6090  -17.4650   10.9918 H   0  0  0  0  0  0  0  0  0  0  0  0
   -0.1337  -17.2282    7.0447 H   0  0  0  0  0  0  0  0  0  0  0  0
   -2.1121  -18.4748    7.9489 H   0  0  0  0  0  0  0  0  0  0  0  0
   -2.0871  -19.3899   10.2436 H   0  0  0  0  0  0  0  0  0  0  0  0
   -0.0570  -19.0778   11.6972 H   0  0  0  0  0  0  0  0  0  0  0  0
    5.2685  -11.0599   12.5870 H   0  0  0  0  0  0  0  0  0  0  0  0
   12.5399   -7.1714   16.5883 H   0  0  0  0  0  0  0  0  0  0  0  0
   13.5685   -4.8929   17.2500 H   0  0  0  0  0  0  0  0  0  0  0  0
   12.2768   -2.8878   16.2433 H   0  0  0  0  0  0  0  0  0  0  0  0
  1  2  2  0
  2  3  1  0
  3  4  1  0
  4  5  1  0
  5  6  1  0
  6  7  2  0
  7  8  1  0
  8  9  2  0
  9 10  1  0
 10 11  2  0
 11 12  1  0
 12 13  2  0
 13 14  1  0
  2 15  1  0
 15 16  1  0
 16 17  2  0
 17 18  1  0
 18 19  2  0
 19 20  1  0
 20 21  2  0
 21 22  1  0
 22 23  2  0
 23 24  1  0
 19 25  1  0
 14  6  1  0
 25 16  1  0
 13  8  1  0
 24 20  1  0
  3 26  1  0
  4 27  1  0
  4 28  1  0
  5 29  1  0
  5 30  1  0
  9 31  1  0
 10 32  1  0
 11 33  1  0
 12 34  1  0
 15 35  1  0
 21 36  1  0
 22 37  1  0
 23 38  1  0
M  END
>  <Energy>  (21) 
729.75688545872902

>  <compound_id>  (21) 
11106

>  <target_id>  (21) 
1

>  <reference_id>  (21) 
2

>  <inspiration_ids>  (21) 
[2, 66]

>  <energy_score>  (21) 
666.3563841718858

>  <distance_score>  (21) 
9.594249583440604

>  <path>  (21) 
/opt/xchem-fragalysis-2/maxwin/BulkDock/SCRATCH/511014/C11106-P2/C11106-P2.minimised.mol

>  <scratch_subdir>  (21) 
/opt/xchem-fragalysis-2/maxwin/BulkDock/SCRATCH/511014/C11106-P2

>  <fragmenstein_runtime>  (21) 
14.605808734893799

>  <fragmenstein_outcome>  (21) 
too moved

>  <fragmenstein_mode>  (21) 
expansion

>  <fragmenstein_error>  (21) 


$$$$
C11106-P66
     RDKit          3D

 38 41  0  0  0  0  0  0  0  0999 V2000
    7.8529  -16.6048    9.5986 O   0  0  0  0  0  0  0  0  0  0  0  0
    7.5341  -16.2393    8.5229 C   0  0  0  0  0  0  0  0  0  0  0  0
    6.2492  -16.5938    7.6896 N   0  0  0  0  0  0  0  0  0  0  0  0
    5.0250  -17.4094    8.0619 C   0  0  0  0  0  0  0  0  0  0  0  0
    3.8678  -17.5348    6.9962 C   0  0  0  0  0  0  0  0  0  0  0  0
    2.4941  -17.9899    7.4763 C   0  0  0  0  0  0  0  0  0  0  0  0
    1.5819  -17.2966    8.1426 N   0  0  0  0  0  0  0  0  0  0  0  0
    0.4490  -18.0879    8.1118 C   0  0  0  0  0  0  0  0  0  0  0  0
   -0.8343  -17.8891    8.6415 C   0  0  0  0  0  0  0  0  0  0  0  0
   -1.7981  -18.8766    8.4146 C   0  0  0  0  0  0  0  0  0  0  0  0
   -1.4938  -20.0369    7.6869 C   0  0  0  0  0  0  0  0  0  0  0  0
   -0.2169  -20.2562    7.1635 C   0  0  0  0  0  0  0  0  0  0  0  0
    0.7117  -19.2486    7.4040 C   0  0  0  0  0  0  0  0  0  0  0  0
    2.0198  -19.1962    6.9921 O   0  0  0  0  0  0  0  0  0  0  0  0
    8.1864  -15.2268    7.6011 N   0  0  0  0  0  0  0  0  0  0  0  0
    9.2779  -14.3852    7.8007 C   0  0  0  0  0  0  0  0  0  0  0  0
    9.5243  -13.3893    6.9688 N   0  0  0  0  0  0  0  0  0  0  0  0
   10.5345  -12.5345    7.4048 N   0  0  0  0  0  0  0  0  0  0  0  0
   11.1163  -12.9470    8.5154 C   0  0  0  0  0  0  0  0  0  0  0  0
   12.2264  -12.2156    9.1272 C   0  0  0  0  0  0  0  0  0  0  0  0
   12.8132  -12.3646   10.3730 C   0  0  0  0  0  0  0  0  0  0  0  0
   13.8014  -11.3780   10.6784 C   0  0  0  0  0  0  0  0  0  0  0  0
   14.0197  -10.5366    9.6153 C   0  0  0  0  0  0  0  0  0  0  0  0
   13.0754  -10.9786    8.2552 S   0  0  0  0  0  0  0  0  0  0  0  0
   10.4315  -14.4662    9.0673 S   0  0  0  0  0  0  0  0  0  0  0  0
    6.3201  -16.1793    6.7693 H   0  0  0  0  0  0  0  0  0  0  0  0
    5.3866  -18.4040    8.3442 H   0  0  0  0  0  0  0  0  0  0  0  0
    4.6370  -16.9439    8.9751 H   0  0  0  0  0  0  0  0  0  0  0  0
    3.7313  -16.5484    6.5349 H   0  0  0  0  0  0  0  0  0  0  0  0
    4.2108  -18.1994    6.1941 H   0  0  0  0  0  0  0  0  0  0  0  0
   -1.0657  -17.0025    9.2199 H   0  0  0  0  0  0  0  0  0  0  0  0
   -2.7905  -18.7525    8.8426 H   0  0  0  0  0  0  0  0  0  0  0  0
   -2.2573  -20.8009    7.5513 H   0  0  0  0  0  0  0  0  0  0  0  0
    0.0405  -21.1507    6.6116 H   0  0  0  0  0  0  0  0  0  0  0  0
    7.6078  -15.0908    6.7921 H   0  0  0  0  0  0  0  0  0  0  0  0
   12.5310  -13.1517   11.0511 H   0  0  0  0  0  0  0  0  0  0  0  0
   14.3397  -11.3197   11.6152 H   0  0  0  0  0  0  0  0  0  0  0  0
   14.7114   -9.7096    9.5446 H   0  0  0  0  0  0  0  0  0  0  0  0
  1  2  2  0
  2  3  1  0
  3  4  1  0
  4  5  1  0
  5  6  1  0
  6  7  2  0
  7  8  1  0
  8  9  2  0
  9 10  1  0
 10 11  2  0
 11 12  1  0
 12 13  2  0
 13 14  1  0
  2 15  1  0
 15 16  1  0
 16 17  2  0
 17 18  1  0
 18 19  2  0
 19 20  1  0
 20 21  2  0
 21 22  1  0
 22 23  2  0
 23 24  1  0
 19 25  1  0
 14  6  1  0
 25 16  1  0
 13  8  1  0
 24 20  1  0
  3 26  1  0
  4 27  1  0
  4 28  1  0
  5 29  1  0
  5 30  1  0
  9 31  1  0
 10 32  1  0
 11 33  1  0
 12 34  1  0
 15 35  1  0
 21 36  1  0
 22 37  1  0
 23 38  1  0
M  END
>  <Energy>  (22) 
-6.292715033579519

>  <compound_id>  (22) 
11106

>  <target_id>  (22) 
1

>  <reference_id>  (22) 
66

>  <inspiration_ids>  (22) 
[2, 66]

>  <energy_score>  (22) 
-69.69321632042038

>  <distance_score>  (22) 
11.943847638221078

>  <path>  (22) 
/opt/xchem-fragalysis-2/maxwin/BulkDock/SCRATCH/511014/C11106-P66/C11106-P66.minimised.mol

>  <scratch_subdir>  (22) 
/opt/xchem-fragalysis-2/maxwin/BulkDock/SCRATCH/511014/C11106-P66

>  <fragmenstein_runtime>  (22) 
17.769140243530273

>  <fragmenstein_outcome>  (22) 
too moved

>  <fragmenstein_mode>  (22) 
expansion

>  <fragmenstein_error>  (22) 


$$$$
C11107-P2
     RDKit          3D

 26 28  0  0  0  0  0  0  0  0999 V2000
    3.2929   -6.8483   11.1908 O   0  0  0  0  0  0  0  0  0  0  0  0
    3.2150   -6.9169    9.7527 S   0  0  0  0  0  0  0  0  0  0  0  0
    2.2784   -6.0676    9.0536 O   0  0  0  0  0  0  0  0  0  0  0  0
    3.0121   -8.5610    9.1903 N   0  0  0  0  0  0  0  0  0  0  0  0
    1.7578   -9.4057    9.2258 C   0  0  0  0  0  0  0  0  0  0  0  0
    0.5934   -9.1086    9.9488 C   0  0  0  0  0  0  0  0  0  0  0  0
   -0.5366   -9.9894   10.0280 C   0  0  0  0  0  0  0  0  0  0  0  0
   -0.4599  -11.1995    9.3437 C   0  0  0  0  0  0  0  0  0  0  0  0
   -1.3936  -12.2014    9.2531 O   0  0  0  0  0  0  0  0  0  0  0  0
   -0.7868  -13.1343    8.4610 C   0  0  0  0  0  0  0  0  0  0  0  0
    0.4233  -12.8157    8.0453 N   0  0  0  0  0  0  0  0  0  0  0  0
    0.6534  -11.5736    8.6112 C   0  0  0  0  0  0  0  0  0  0  0  0
    1.7703  -10.6783    8.5695 C   0  0  0  0  0  0  0  0  0  0  0  0
    4.7801   -6.1123    9.3253 C   0  0  0  0  0  0  0  0  0  0  0  0
    5.2167   -4.8336    9.6520 C   0  0  0  0  0  0  0  0  0  0  0  0
    6.5068   -4.5349    9.1298 C   0  0  0  0  0  0  0  0  0  0  0  0
    7.0394   -5.6161    8.4661 C   0  0  0  0  0  0  0  0  0  0  0  0
    5.9208   -6.9151    8.3597 S   0  0  0  0  0  0  0  0  0  0  0  0
    3.5753   -8.7277    8.3572 H   0  0  0  0  0  0  0  0  0  0  0  0
    0.5325   -8.1632   10.4873 H   0  0  0  0  0  0  0  0  0  0  0  0
   -1.4164   -9.7174   10.5993 H   0  0  0  0  0  0  0  0  0  0  0  0
   -1.3496  -14.0340    8.2542 H   0  0  0  0  0  0  0  0  0  0  0  0
    2.6491  -10.9979    8.0180 H   0  0  0  0  0  0  0  0  0  0  0  0
    4.6149   -4.1507   10.2413 H   0  0  0  0  0  0  0  0  0  0  0  0
    7.0159   -3.5889    9.2625 H   0  0  0  0  0  0  0  0  0  0  0  0
    8.0115   -5.6989    7.9983 H   0  0  0  0  0  0  0  0  0  0  0  0
  1  2  2  0
  2  3  2  0
  2  4  1  0
  4  5  1  0
  5  6  2  0
  6  7  1  0
  7  8  2  0
  8  9  1  0
  9 10  1  0
 10 11  2  0
 11 12  1  0
 12 13  2  0
  2 14  1  0
 14 15  2  0
 15 16  1  0
 16 17  2  0
 17 18  1  0
 13  5  1  0
 18 14  1  0
 12  8  1  0
  4 19  1  0
  6 20  1  0
  7 21  1  0
 10 22  1  0
 13 23  1  0
 15 24  1  0
 16 25  1  0
 17 26  1  0
M  END
>  <Energy>  (23) 
4.6322896927223791

>  <compound_id>  (23) 
11107

>  <target_id>  (23) 
1

>  <reference_id>  (23) 
2

>  <inspiration_ids>  (23) 
[2, 66]

>  <energy_score>  (23) 
-22.650301324155066

>  <distance_score>  (23) 
13.259383062640003

>  <path>  (23) 
/opt/xchem-fragalysis-2/maxwin/BulkDock/SCRATCH/511014/C11107-P2/C11107-P2.minimised.mol

>  <scratch_subdir>  (23) 
/opt/xchem-fragalysis-2/maxwin/BulkDock/SCRATCH/511014/C11107-P2

>  <fragmenstein_runtime>  (23) 
7.5107245445251465

>  <fragmenstein_outcome>  (23) 
too moved

>  <fragmenstein_mode>  (23) 
expansion

>  <fragmenstein_error>  (23) 


$$$$
C11107-P66
     RDKit          3D

 26 28  0  0  0  0  0  0  0  0999 V2000
    8.9391  -10.9298   14.0895 O   0  0  0  0  0  0  0  0  0  0  0  0
    7.6678  -10.3461   14.5279 S   0  0  0  0  0  0  0  0  0  0  0  0
    8.0688  -10.2607   15.9619 O   0  0  0  0  0  0  0  0  0  0  0  0
    5.6613  -11.0393   13.7912 N   0  0  0  0  0  0  0  0  0  0  0  0
    4.1565  -10.2220   13.2282 C   0  0  0  0  0  0  0  0  0  0  0  0
    4.1042   -8.6816   13.0449 C   0  0  0  0  0  0  0  0  0  0  0  0
    3.4192   -7.9615   11.5258 C   0  0  0  0  0  0  0  0  0  0  0  0
    2.8500   -8.7565   10.4339 C   0  0  0  0  0  0  0  0  0  0  0  0
    2.1570   -8.3801    9.3093 O   0  0  0  0  0  0  0  0  0  0  0  0
    1.6472   -9.5548    8.8114 C   0  0  0  0  0  0  0  0  0  0  0  0
    1.9369  -10.6369    9.4978 N   0  0  0  0  0  0  0  0  0  0  0  0
    2.7482  -10.1408   10.4960 C   0  0  0  0  0  0  0  0  0  0  0  0
    3.2404  -10.7551   11.7370 C   0  0  0  0  0  0  0  0  0  0  0  0
    6.6545   -8.2483   14.1792 C   0  0  0  0  0  0  0  0  0  0  0  0
    6.8300   -7.2600   15.1137 C   0  0  0  0  0  0  0  0  0  0  0  0
    8.2378   -7.1690   14.4896 C   0  0  0  0  0  0  0  0  0  0  0  0
    7.9289   -7.3255   12.7975 C   0  0  0  0  0  0  0  0  0  0  0  0
    6.4205   -7.3556   12.7420 S   0  0  0  0  0  0  0  0  0  0  0  0
    5.6105  -12.0305   14.0083 H   0  0  0  0  0  0  0  0  0  0  0  0
    4.3902   -7.9762   13.7714 H   0  0  0  0  0  0  0  0  0  0  0  0
    3.4357   -6.8717   11.4430 H   0  0  0  0  0  0  0  0  0  0  0  0
    1.0510   -9.4712    7.9138 H   0  0  0  0  0  0  0  0  0  0  0  0
    2.2919  -11.2576   11.9384 H   0  0  0  0  0  0  0  0  0  0  0  0
    6.5029   -6.8952   16.0808 H   0  0  0  0  0  0  0  0  0  0  0  0
    9.2124   -7.4009   14.9686 H   0  0  0  0  0  0  0  0  0  0  0  0
    8.4063   -7.5071   11.8395 H   0  0  0  0  0  0  0  0  0  0  0  0
  1  2  2  0
  2  3  2  0
  2  4  1  0
  4  5  1  0
  5  6  2  0
  6  7  1  0
  7  8  2  0
  8  9  1  0
  9 10  1  0
 10 11  2  0
 11 12  1  0
 12 13  2  0
  2 14  1  0
 14 15  2  0
 15 16  1  0
 16 17  2  0
 17 18  1  0
 13  5  1  0
 18 14  1  0
 12  8  1  0
  4 19  1  0
  6 20  1  0
  7 21  1  0
 10 22  1  0
 13 23  1  0
 15 24  1  0
 16 25  1  0
 17 26  1  0
M  END
>  <Energy>  (24) 
597.73071023594537

>  <compound_id>  (24) 
11107

>  <target_id>  (24) 
1

>  <reference_id>  (24) 
66

>  <inspiration_ids>  (24) 
[2, 66]

>  <energy_score>  (24) 
570.4481192190649

>  <distance_score>  (24) 
14.319808338122293

>  <path>  (24) 
/opt/xchem-fragalysis-2/maxwin/BulkDock/SCRATCH/511014/C11107-P66/C11107-P66.minimised.mol

>  <scratch_subdir>  (24) 
/opt/xchem-fragalysis-2/maxwin/BulkDock/SCRATCH/511014/C11107-P66

>  <fragmenstein_runtime>  (24) 
5.614514112472534

>  <fragmenstein_outcome>  (24) 
too moved

>  <fragmenstein_mode>  (24) 
expansion

>  <fragmenstein_error>  (24) 


$$$$
C11108-P2
     RDKit          3D

 38 40  0  0  0  0  0  0  0  0999 V2000
   -2.6870  -17.8605    8.1088 C   0  0  0  0  0  0  0  0  0  0  0  0
   -3.8083  -16.7241    8.2754 C   0  0  0  0  0  0  0  0  0  0  0  0
   -3.6122  -15.4144    7.1689 C   0  0  0  0  0  0  0  0  0  0  0  0
   -5.7971  -17.5833    8.4777 C   0  0  0  0  0  0  0  0  0  0  0  0
   -2.5610  -15.5313    9.3261 C   0  0  0  0  0  0  0  0  0  0  0  0
   -2.4610  -14.5673   10.4032 N   0  0  0  0  0  0  0  0  0  0  0  0
   -0.9771  -13.6724   10.4476 C   0  0  0  0  0  0  0  0  0  0  0  0
    0.0350  -12.4522   11.2698 C   0  0  0  0  0  0  0  0  0  0  0  0
    1.5686  -11.7117   10.9943 C   0  0  0  0  0  0  0  0  0  0  0  0
    2.9890  -10.5386   11.6798 N   0  0  0  0  0  0  0  0  0  0  0  0
    4.2428   -9.7518   13.5730 S   0  0  0  0  0  0  0  0  0  0  0  0
    5.2521  -10.7806   13.7072 O   0  0  0  0  0  0  0  0  0  0  0  0
    4.1064   -8.3019   13.2533 O   0  0  0  0  0  0  0  0  0  0  0  0
    5.8888   -8.0956   14.0549 C   0  0  0  0  0  0  0  0  0  0  0  0
    7.0303   -7.8672   13.3746 C   0  0  0  0  0  0  0  0  0  0  0  0
    8.2663   -7.0934   14.5113 C   0  0  0  0  0  0  0  0  0  0  0  0
    7.6377   -6.3589   15.4601 C   0  0  0  0  0  0  0  0  0  0  0  0
    6.2199   -6.6871   15.9187 S   0  0  0  0  0  0  0  0  0  0  0  0
    1.8035  -12.3625    9.7389 C   0  0  0  0  0  0  0  0  0  0  0  0
    0.9252  -13.5131    8.9581 C   0  0  0  0  0  0  0  0  0  0  0  0
   -0.3707  -14.1513    9.2970 C   0  0  0  0  0  0  0  0  0  0  0  0
   -1.1827  -15.2018    8.6320 O   0  0  0  0  0  0  0  0  0  0  0  0
   -2.9407  -18.7546    8.6874 H   0  0  0  0  0  0  0  0  0  0  0  0
   -1.7098  -17.5636    8.4983 H   0  0  0  0  0  0  0  0  0  0  0  0
   -2.4999  -18.1255    7.0664 H   0  0  0  0  0  0  0  0  0  0  0  0
   -3.8394  -14.4706    7.6844 H   0  0  0  0  0  0  0  0  0  0  0  0
   -4.1742  -15.3327    6.2370 H   0  0  0  0  0  0  0  0  0  0  0  0
   -2.5726  -15.4032    6.8201 H   0  0  0  0  0  0  0  0  0  0  0  0
   -6.4749  -17.8406    7.7117 H   0  0  0  0  0  0  0  0  0  0  0  0
   -6.5948  -16.8113    8.7286 H   0  0  0  0  0  0  0  0  0  0  0  0
   -6.1107  -18.3719    9.1253 H   0  0  0  0  0  0  0  0  0  0  0  0
   -0.4650  -12.1573   12.1972 H   0  0  0  0  0  0  0  0  0  0  0  0
    2.5539   -9.6133   11.5347 H   0  0  0  0  0  0  0  0  0  0  0  0
    7.3489   -8.0131   12.3662 H   0  0  0  0  0  0  0  0  0  0  0  0
    9.2800   -7.4682   14.6963 H   0  0  0  0  0  0  0  0  0  0  0  0
    7.7626   -5.4153   15.9268 H   0  0  0  0  0  0  0  0  0  0  0  0
    2.7438  -12.1239    9.2300 H   0  0  0  0  0  0  0  0  0  0  0  0
    1.4007  -13.8642    8.0359 H   0  0  0  0  0  0  0  0  0  0  0  0
  1  2  1  0
  2  3  1  0
  2  4  1  0
  2  5  1  0
  5  6  2  0
  6  7  1  0
  7  8  2  0
  8  9  1  0
  9 10  1  0
 10 11  1  0
 11 12  2  0
 11 13  2  0
 11 14  1  0
 14 15  2  0
 15 16  1  0
 16 17  2  0
 17 18  1  0
  9 19  2  0
 19 20  1  0
 20 21  2  0
 21 22  1  0
 22  5  1  0
 21  7  1  0
 18 14  1  0
  1 23  1  0
  1 24  1  0
  1 25  1  0
  3 26  1  0
  3 27  1  0
  3 28  1  0
  4 29  1  0
  4 30  1  0
  4 31  1  0
  8 32  1  0
 10 33  1  0
 15 34  1  0
 16 35  1  0
 17 36  1  0
 19 37  1  0
 20 38  1  0
M  END
>  <Energy>  (25) 
1102.6292659880678

>  <compound_id>  (25) 
11108

>  <target_id>  (25) 
1

>  <reference_id>  (25) 
2

>  <inspiration_ids>  (25) 
[2, 66]

>  <energy_score>  (25) 
1051.9110793626091

>  <distance_score>  (25) 
11.339579406051353

>  <path>  (25) 
/opt/xchem-fragalysis-2/maxwin/BulkDock/SCRATCH/511014/C11108-P2/C11108-P2.minimised.mol

>  <scratch_subdir>  (25) 
/opt/xchem-fragalysis-2/maxwin/BulkDock/SCRATCH/511014/C11108-P2

>  <fragmenstein_runtime>  (25) 
9.618518114089966

>  <fragmenstein_outcome>  (25) 
too moved

>  <fragmenstein_mode>  (25) 
expansion

>  <fragmenstein_error>  (25) 


$$$$
C11108-P66
     RDKit          3D

 38 40  0  0  0  0  0  0  0  0999 V2000
   -0.7531  -15.3399    8.9015 C   0  0  0  0  0  0  0  0  0  0  0  0
   -0.9656  -13.9319    8.3213 C   0  0  0  0  0  0  0  0  0  0  0  0
   -2.4054  -13.4747    8.6070 C   0  0  0  0  0  0  0  0  0  0  0  0
   -0.7447  -13.9773    6.8009 C   0  0  0  0  0  0  0  0  0  0  0  0
    0.0059  -12.9638    8.9987 C   0  0  0  0  0  0  0  0  0  0  0  0
    0.1243  -12.6969   10.2925 N   0  0  0  0  0  0  0  0  0  0  0  0
    1.1953  -11.8177   10.3622 C   0  0  0  0  0  0  0  0  0  0  0  0
    1.8973  -11.1804   11.4493 C   0  0  0  0  0  0  0  0  0  0  0  0
    3.1396  -10.3357   11.5395 C   0  0  0  0  0  0  0  0  0  0  0  0
    4.1734   -9.7469   13.1981 N   0  0  0  0  0  0  0  0  0  0  0  0
    5.4347   -7.8374   13.6397 S   0  0  0  0  0  0  0  0  0  0  0  0
    5.7561   -6.9282   12.4949 O   0  0  0  0  0  0  0  0  0  0  0  0
    6.6819   -8.4491   13.8583 O   0  0  0  0  0  0  0  0  0  0  0  0
    6.4926   -6.9071   15.3719 C   0  0  0  0  0  0  0  0  0  0  0  0
    7.8695   -6.5311   15.2343 C   0  0  0  0  0  0  0  0  0  0  0  0
    8.6650   -4.7236   14.8409 C   0  0  0  0  0  0  0  0  0  0  0  0
    7.8652   -4.4131   15.8925 C   0  0  0  0  0  0  0  0  0  0  0  0
    6.2772   -5.8744   16.6724 S   0  0  0  0  0  0  0  0  0  0  0  0
    3.3169   -9.9726   10.1540 C   0  0  0  0  0  0  0  0  0  0  0  0
    2.6583  -10.5666    8.9555 C   0  0  0  0  0  0  0  0  0  0  0  0
    1.6483  -11.5190    9.1103 C   0  0  0  0  0  0  0  0  0  0  0  0
    0.8972  -12.2464    8.2106 O   0  0  0  0  0  0  0  0  0  0  0  0
    0.2718  -15.6894    8.7295 H   0  0  0  0  0  0  0  0  0  0  0  0
   -0.9270  -15.3584    9.9839 H   0  0  0  0  0  0  0  0  0  0  0  0
   -1.4362  -16.0647    8.4439 H   0  0  0  0  0  0  0  0  0  0  0  0
   -2.6135  -13.4534    9.6833 H   0  0  0  0  0  0  0  0  0  0  0  0
   -3.1350  -14.1474    8.1416 H   0  0  0  0  0  0  0  0  0  0  0  0
   -2.5852  -12.4649    8.2196 H   0  0  0  0  0  0  0  0  0  0  0  0
   -1.4411  -14.6747    6.3210 H   0  0  0  0  0  0  0  0  0  0  0  0
    0.2728  -14.3025    6.5539 H   0  0  0  0  0  0  0  0  0  0  0  0
   -0.8965  -12.9920    6.3447 H   0  0  0  0  0  0  0  0  0  0  0  0
    1.3196  -11.3914   12.3277 H   0  0  0  0  0  0  0  0  0  0  0  0
    3.4193   -9.6992   13.8660 H   0  0  0  0  0  0  0  0  0  0  0  0
    8.4598   -7.1613   14.6163 H   0  0  0  0  0  0  0  0  0  0  0  0
    9.7610   -4.4061   14.8115 H   0  0  0  0  0  0  0  0  0  0  0  0
    7.6097   -3.3158   15.6785 H   0  0  0  0  0  0  0  0  0  0  0  0
    3.9735   -9.1440    9.8953 H   0  0  0  0  0  0  0  0  0  0  0  0
    2.9561  -10.2297    7.9668 H   0  0  0  0  0  0  0  0  0  0  0  0
  1  2  1  0
  2  3  1  0
  2  4  1  0
  2  5  1  0
  5  6  2  0
  6  7  1  0
  7  8  2  0
  8  9  1  0
  9 10  1  0
 10 11  1  0
 11 12  2  0
 11 13  2  0
 11 14  1  0
 14 15  2  0
 15 16  1  0
 16 17  2  0
 17 18  1  0
  9 19  2  0
 19 20  1  0
 20 21  2  0
 21 22  1  0
 22  5  1  0
 21  7  1  0
 18 14  1  0
  1 23  1  0
  1 24  1  0
  1 25  1  0
  3 26  1  0
  3 27  1  0
  3 28  1  0
  4 29  1  0
  4 30  1  0
  4 31  1  0
  8 32  1  0
 10 33  1  0
 15 34  1  0
 16 35  1  0
 17 36  1  0
 19 37  1  0
 20 38  1  0
M  END
>  <Energy>  (26) 
635.0754499502973

>  <compound_id>  (26) 
11108

>  <target_id>  (26) 
1

>  <reference_id>  (26) 
66

>  <inspiration_ids>  (26) 
[2, 66]

>  <energy_score>  (26) 
584.3572633248488

>  <distance_score>  (26) 
12.433762510906499

>  <path>  (26) 
/opt/xchem-fragalysis-2/maxwin/BulkDock/SCRATCH/511014/C11108-P66/C11108-P66.minimised.mol

>  <scratch_subdir>  (26) 
/opt/xchem-fragalysis-2/maxwin/BulkDock/SCRATCH/511014/C11108-P66

>  <fragmenstein_runtime>  (26) 
9.024813413619995

>  <fragmenstein_outcome>  (26) 
too moved

>  <fragmenstein_mode>  (26) 
expansion

>  <fragmenstein_error>  (26) 


$$$$
C11109-P2
     RDKit          3D

 29 31  0  0  0  0  0  0  0  0999 V2000
    3.0135  -10.4071   10.2955 O   0  0  0  0  0  0  0  0  0  0  0  0
    2.1854   -9.4655    9.5858 S   0  0  0  0  0  0  0  0  0  0  0  0
    1.2120   -8.6167   10.2402 O   0  0  0  0  0  0  0  0  0  0  0  0
    1.3000  -10.3615    8.3735 N   0  0  0  0  0  0  0  0  0  0  0  0
    0.5407  -11.6158    8.7234 C   0  0  0  0  0  0  0  0  0  0  0  0
   -0.0209  -11.8941    9.9823 C   0  0  0  0  0  0  0  0  0  0  0  0
   -0.7857  -13.0703   10.2494 C   0  0  0  0  0  0  0  0  0  0  0  0
   -0.9755  -13.9554    9.1918 C   0  0  0  0  0  0  0  0  0  0  0  0
   -1.5814  -15.1830    9.2041 O   0  0  0  0  0  0  0  0  0  0  0  0
   -1.4038  -15.6601    7.9204 C   0  0  0  0  0  0  0  0  0  0  0  0
   -1.7580  -17.0958    7.6958 C   0  0  0  0  0  0  0  0  0  0  0  0
   -1.7655  -17.4254    6.3738 F   0  0  0  0  0  0  0  0  0  0  0  0
   -2.9893  -17.3717    8.1739 F   0  0  0  0  0  0  0  0  0  0  0  0
   -0.8316  -14.7853    7.1001 N   0  0  0  0  0  0  0  0  0  0  0  0
   -0.5053  -13.7166    7.9128 C   0  0  0  0  0  0  0  0  0  0  0  0
    0.2288  -12.5202    7.6701 C   0  0  0  0  0  0  0  0  0  0  0  0
    3.3541   -8.2084    9.0159 C   0  0  0  0  0  0  0  0  0  0  0  0
    3.7180   -6.9992    9.6064 C   0  0  0  0  0  0  0  0  0  0  0  0
    4.8211   -6.3684    8.9630 C   0  0  0  0  0  0  0  0  0  0  0  0
    5.2316   -7.0905    7.8656 C   0  0  0  0  0  0  0  0  0  0  0  0
    4.2686   -8.4977    7.6111 S   0  0  0  0  0  0  0  0  0  0  0  0
    0.6793   -9.7017    7.9010 H   0  0  0  0  0  0  0  0  0  0  0  0
    0.1487  -11.2076   10.8120 H   0  0  0  0  0  0  0  0  0  0  0  0
   -1.1598  -13.2838   11.2446 H   0  0  0  0  0  0  0  0  0  0  0  0
   -1.0389  -17.7470    8.2002 H   0  0  0  0  0  0  0  0  0  0  0  0
    0.6085  -12.3399    6.6689 H   0  0  0  0  0  0  0  0  0  0  0  0
    3.2427   -6.6370   10.5111 H   0  0  0  0  0  0  0  0  0  0  0  0
    5.2891   -5.4483    9.2909 H   0  0  0  0  0  0  0  0  0  0  0  0
    6.0415   -6.8643    7.1853 H   0  0  0  0  0  0  0  0  0  0  0  0
  1  2  2  0
  2  3  2  0
  2  4  1  0
  4  5  1  0
  5  6  2  0
  6  7  1  0
  7  8  2  0
  8  9  1  0
  9 10  1  0
 10 11  1  0
 11 12  1  0
 11 13  1  0
 10 14  2  0
 14 15  1  0
 15 16  2  0
  2 17  1  0
 17 18  2  0
 18 19  1  0
 19 20  2  0
 20 21  1  0
 16  5  1  0
 21 17  1  0
 15  8  1  0
  4 22  1  0
  6 23  1  0
  7 24  1  0
 11 25  1  0
 16 26  1  0
 18 27  1  0
 19 28  1  0
 20 29  1  0
M  END
>  <Energy>  (27) 
43.584484524968715

>  <compound_id>  (27) 
11109

>  <target_id>  (27) 
1

>  <reference_id>  (27) 
2

>  <inspiration_ids>  (27) 
[2, 66]

>  <energy_score>  (27) 
-30.748139466857936

>  <distance_score>  (27) 
12.927155098257284

>  <path>  (27) 
/opt/xchem-fragalysis-2/maxwin/BulkDock/SCRATCH/511014/C11109-P2/C11109-P2.minimised.mol

>  <scratch_subdir>  (27) 
/opt/xchem-fragalysis-2/maxwin/BulkDock/SCRATCH/511014/C11109-P2

>  <fragmenstein_runtime>  (27) 
8.311080932617188

>  <fragmenstein_outcome>  (27) 
too moved

>  <fragmenstein_mode>  (27) 
expansion

>  <fragmenstein_error>  (27) 


$$$$
C11109-P66
     RDKit          3D

 29 31  0  0  0  0  0  0  0  0999 V2000
    1.9885   -6.8405   10.9158 O   0  0  0  0  0  0  0  0  0  0  0  0
    3.2955   -7.4399   11.1225 S   0  0  0  0  0  0  0  0  0  0  0  0
    4.1041   -6.9613   12.2047 O   0  0  0  0  0  0  0  0  0  0  0  0
    3.1399   -9.7443   11.0023 N   0  0  0  0  0  0  0  0  0  0  0  0
    1.9698  -10.8482   10.2973 C   0  0  0  0  0  0  0  0  0  0  0  0
    0.9526  -11.4277   11.0860 C   0  0  0  0  0  0  0  0  0  0  0  0
   -0.0041  -12.4409   10.7680 C   0  0  0  0  0  0  0  0  0  0  0  0
    0.1033  -12.9687    9.5102 C   0  0  0  0  0  0  0  0  0  0  0  0
   -0.6750  -13.9411    8.9563 O   0  0  0  0  0  0  0  0  0  0  0  0
   -0.1385  -14.1243    7.7034 C   0  0  0  0  0  0  0  0  0  0  0  0
   -0.8311  -15.1671    6.8619 C   0  0  0  0  0  0  0  0  0  0  0  0
   -0.0253  -15.6461    5.8735 F   0  0  0  0  0  0  0  0  0  0  0  0
   -1.9307  -14.6573    6.2392 F   0  0  0  0  0  0  0  0  0  0  0  0
    0.9189  -13.3411    7.4644 N   0  0  0  0  0  0  0  0  0  0  0  0
    1.0887  -12.5736    8.6213 C   0  0  0  0  0  0  0  0  0  0  0  0
    2.0515  -11.5378    9.0394 C   0  0  0  0  0  0  0  0  0  0  0  0
    4.4276   -6.5638    9.8810 C   0  0  0  0  0  0  0  0  0  0  0  0
    5.3947   -6.8971    8.9494 C   0  0  0  0  0  0  0  0  0  0  0  0
    6.2192   -5.7874    8.5708 C   0  0  0  0  0  0  0  0  0  0  0  0
    5.8151   -4.6125    9.1564 C   0  0  0  0  0  0  0  0  0  0  0  0
    4.4303   -4.8344   10.1279 S   0  0  0  0  0  0  0  0  0  0  0  0
    2.9622   -9.8611   12.0040 H   0  0  0  0  0  0  0  0  0  0  0  0
    0.8618  -11.0937   12.0834 H   0  0  0  0  0  0  0  0  0  0  0  0
   -0.7423  -12.7761   11.4857 H   0  0  0  0  0  0  0  0  0  0  0  0
   -1.1493  -16.0139    7.4768 H   0  0  0  0  0  0  0  0  0  0  0  0
    2.8581  -11.3190    8.3469 H   0  0  0  0  0  0  0  0  0  0  0  0
    5.5647   -7.8956    8.5815 H   0  0  0  0  0  0  0  0  0  0  0  0
    7.0634   -5.8580    7.8952 H   0  0  0  0  0  0  0  0  0  0  0  0
    6.2472   -3.6276    9.0429 H   0  0  0  0  0  0  0  0  0  0  0  0
  1  2  2  0
  2  3  2  0
  2  4  1  0
  4  5  1  0
  5  6  2  0
  6  7  1  0
  7  8  2  0
  8  9  1  0
  9 10  1  0
 10 11  1  0
 11 12  1  0
 11 13  1  0
 10 14  2  0
 14 15  1  0
 15 16  2  0
  2 17  1  0
 17 18  2  0
 18 19  1  0
 19 20  2  0
 20 21  1  0
 16  5  1  0
 21 17  1  0
 15  8  1  0
  4 22  1  0
  6 23  1  0
  7 24  1  0
 11 25  1  0
 16 26  1  0
 18 27  1  0
 19 28  1  0
 20 29  1  0
M  END
>  <Energy>  (28) 
190.73934585309226

>  <compound_id>  (28) 
11109

>  <target_id>  (28) 
1

>  <reference_id>  (28) 
66

>  <inspiration_ids>  (28) 
[2, 66]

>  <energy_score>  (28) 
116.40672186126767

>  <distance_score>  (28) 
12.870540881204999

>  <path>  (28) 
/opt/xchem-fragalysis-2/maxwin/BulkDock/SCRATCH/511014/C11109-P66/C11109-P66.minimised.mol

>  <scratch_subdir>  (28) 
/opt/xchem-fragalysis-2/maxwin/BulkDock/SCRATCH/511014/C11109-P66

>  <fragmenstein_runtime>  (28) 
9.183708667755127

>  <fragmenstein_outcome>  (28) 
too moved

>  <fragmenstein_mode>  (28) 
expansion

>  <fragmenstein_error>  (28) 


$$$$
C11110-P2
     RDKit          3D

 35 37  0  0  0  0  0  0  0  0999 V2000
   -3.7306  -13.6919    8.4941 C   0  0  0  0  0  0  0  0  0  0  0  0
   -2.4004  -14.2569    7.9982 C   0  0  0  0  0  0  0  0  0  0  0  0
   -2.0079  -15.5652    8.6690 C   0  0  0  0  0  0  0  0  0  0  0  0
   -1.3701  -13.1945    8.2333 C   0  0  0  0  0  0  0  0  0  0  0  0
   -0.5355  -12.9950    9.2448 N   0  0  0  0  0  0  0  0  0  0  0  0
    0.0497  -11.7635    8.9698 C   0  0  0  0  0  0  0  0  0  0  0  0
    1.0494  -10.9629    9.6187 C   0  0  0  0  0  0  0  0  0  0  0  0
    1.4650   -9.6872    9.0948 C   0  0  0  0  0  0  0  0  0  0  0  0
    2.6736   -8.9951    9.6721 N   0  0  0  0  0  0  0  0  0  0  0  0
    3.0336   -7.2693    9.6754 S   0  0  0  0  0  0  0  0  0  0  0  0
    2.1847   -6.5417    8.7648 O   0  0  0  0  0  0  0  0  0  0  0  0
    3.1378   -6.8356   11.0553 O   0  0  0  0  0  0  0  0  0  0  0  0
    4.6816   -6.8119    9.1119 C   0  0  0  0  0  0  0  0  0  0  0  0
    5.5178   -5.8001    9.5643 C   0  0  0  0  0  0  0  0  0  0  0  0
    6.7612   -5.7599    8.8776 C   0  0  0  0  0  0  0  0  0  0  0  0
    6.8125   -6.7081    7.8831 C   0  0  0  0  0  0  0  0  0  0  0  0
    5.3367   -7.5781    7.7439 S   0  0  0  0  0  0  0  0  0  0  0  0
    0.8708   -9.2978    7.8913 C   0  0  0  0  0  0  0  0  0  0  0  0
   -0.1277  -10.0646    7.2271 C   0  0  0  0  0  0  0  0  0  0  0  0
   -0.4892  -11.2790    7.7930 C   0  0  0  0  0  0  0  0  0  0  0  0
   -1.3843  -12.1845    7.3088 O   0  0  0  0  0  0  0  0  0  0  0  0
   -3.9624  -12.7366    8.0077 H   0  0  0  0  0  0  0  0  0  0  0  0
   -3.7123  -13.5081    9.5744 H   0  0  0  0  0  0  0  0  0  0  0  0
   -4.5530  -14.3618    8.2699 H   0  0  0  0  0  0  0  0  0  0  0  0
   -2.4749  -14.4354    6.9180 H   0  0  0  0  0  0  0  0  0  0  0  0
   -1.0051  -15.8798    8.3579 H   0  0  0  0  0  0  0  0  0  0  0  0
   -2.7004  -16.3644    8.3895 H   0  0  0  0  0  0  0  0  0  0  0  0
   -2.0012  -15.4755    9.7608 H   0  0  0  0  0  0  0  0  0  0  0  0
    1.5134  -11.3595   10.5159 H   0  0  0  0  0  0  0  0  0  0  0  0
    2.7908   -9.2805   10.6531 H   0  0  0  0  0  0  0  0  0  0  0  0
    5.2263   -5.1407   10.3732 H   0  0  0  0  0  0  0  0  0  0  0  0
    7.5717   -5.0784    9.0911 H   0  0  0  0  0  0  0  0  0  0  0  0
    7.6263   -6.9106    7.2001 H   0  0  0  0  0  0  0  0  0  0  0  0
    1.1918   -8.3768    7.4064 H   0  0  0  0  0  0  0  0  0  0  0  0
   -0.5614   -9.7260    6.2928 H   0  0  0  0  0  0  0  0  0  0  0  0
  1  2  1  0
  2  3  1  0
  2  4  1  0
  4  5  2  0
  5  6  1  0
  6  7  2  0
  7  8  1  0
  8  9  1  0
  9 10  1  0
 10 11  2  0
 10 12  2  0
 10 13  1  0
 13 14  2  0
 14 15  1  0
 15 16  2  0
 16 17  1  0
  8 18  2  0
 18 19  1  0
 19 20  2  0
 20 21  1  0
 21  4  1  0
 20  6  1  0
 17 13  1  0
  1 22  1  0
  1 23  1  0
  1 24  1  0
  2 25  1  0
  3 26  1  0
  3 27  1  0
  3 28  1  0
  7 29  1  0
  9 30  1  0
 14 31  1  0
 15 32  1  0
 16 33  1  0
 18 34  1  0
 19 35  1  0
M  END
>  <Energy>  (29) 
7.2676402754310478

>  <compound_id>  (29) 
11110

>  <target_id>  (29) 
1

>  <reference_id>  (29) 
2

>  <inspiration_ids>  (29) 
[2, 66]

>  <energy_score>  (29) 
-25.276226491604007

>  <distance_score>  (29) 
13.273510109329893

>  <path>  (29) 
/opt/xchem-fragalysis-2/maxwin/BulkDock/SCRATCH/511014/C11110-P2/C11110-P2.minimised.mol

>  <scratch_subdir>  (29) 
/opt/xchem-fragalysis-2/maxwin/BulkDock/SCRATCH/511014/C11110-P2

>  <fragmenstein_runtime>  (29) 
8.554378747940063

>  <fragmenstein_outcome>  (29) 
too moved

>  <fragmenstein_mode>  (29) 
expansion

>  <fragmenstein_error>  (29) 


$$$$
C11110-P66
     RDKit          3D

 35 37  0  0  0  0  0  0  0  0999 V2000
   -0.3163  -12.2851    9.3585 C   0  0  0  0  0  0  0  0  0  0  0  0
    1.1654  -12.5135    9.0712 C   0  0  0  0  0  0  0  0  0  0  0  0
    1.4680  -12.3774    7.5812 C   0  0  0  0  0  0  0  0  0  0  0  0
    2.0146  -11.5596    9.8862 C   0  0  0  0  0  0  0  0  0  0  0  0
    2.8199  -11.8220   10.8900 N   0  0  0  0  0  0  0  0  0  0  0  0
    3.1474  -10.5910   11.5598 C   0  0  0  0  0  0  0  0  0  0  0  0
    4.0228  -10.1046   13.1252 C   0  0  0  0  0  0  0  0  0  0  0  0
    4.2656   -8.3897   13.2505 C   0  0  0  0  0  0  0  0  0  0  0  0
    5.6252   -7.5525   13.8195 N   0  0  0  0  0  0  0  0  0  0  0  0
    6.7112   -6.6233   15.5097 S   0  0  0  0  0  0  0  0  0  0  0  0
    6.0810   -6.1137   16.6891 O   0  0  0  0  0  0  0  0  0  0  0  0
    7.0594   -7.9083   15.0927 O   0  0  0  0  0  0  0  0  0  0  0  0
    8.5139   -5.4890   14.4004 C   0  0  0  0  0  0  0  0  0  0  0  0
   10.2130   -4.8921   14.5738 C   0  0  0  0  0  0  0  0  0  0  0  0
   10.7894   -6.4122   15.2296 C   0  0  0  0  0  0  0  0  0  0  0  0
    9.4841   -7.5501   14.9083 C   0  0  0  0  0  0  0  0  0  0  0  0
    7.9960   -7.2548   13.0227 S   0  0  0  0  0  0  0  0  0  0  0  0
    3.6025   -7.5818   11.8219 C   0  0  0  0  0  0  0  0  0  0  0  0
    2.9294   -8.1873   10.6385 C   0  0  0  0  0  0  0  0  0  0  0  0
    2.7154   -9.6098   10.5718 C   0  0  0  0  0  0  0  0  0  0  0  0
    1.9654  -10.2315    9.5896 O   0  0  0  0  0  0  0  0  0  0  0  0
   -0.9336  -13.0055    8.8113 H   0  0  0  0  0  0  0  0  0  0  0  0
   -0.6327  -11.2775    9.0661 H   0  0  0  0  0  0  0  0  0  0  0  0
   -0.5298  -12.4019   10.4271 H   0  0  0  0  0  0  0  0  0  0  0  0
    1.4209  -13.5347    9.3782 H   0  0  0  0  0  0  0  0  0  0  0  0
    1.2146  -11.3792    7.2066 H   0  0  0  0  0  0  0  0  0  0  0  0
    2.5321  -12.5465    7.3812 H   0  0  0  0  0  0  0  0  0  0  0  0
    0.8961  -13.1096    7.0013 H   0  0  0  0  0  0  0  0  0  0  0  0
    4.5944  -10.7971   13.7384 H   0  0  0  0  0  0  0  0  0  0  0  0
    6.4565   -8.1550   13.7090 H   0  0  0  0  0  0  0  0  0  0  0  0
   10.4786   -3.9661   15.0820 H   0  0  0  0  0  0  0  0  0  0  0  0
   11.5640   -6.4487   16.0048 H   0  0  0  0  0  0  0  0  0  0  0  0
    9.6969   -8.6151   15.2347 H   0  0  0  0  0  0  0  0  0  0  0  0
    3.8731   -6.5188   11.7325 H   0  0  0  0  0  0  0  0  0  0  0  0
    2.5890   -7.5517    9.8277 H   0  0  0  0  0  0  0  0  0  0  0  0
  1  2  1  0
  2  3  1  0
  2  4  1  0
  4  5  2  0
  5  6  1  0
  6  7  2  0
  7  8  1  0
  8  9  1  0
  9 10  1  0
 10 11  2  0
 10 12  2  0
 10 13  1  0
 13 14  2  0
 14 15  1  0
 15 16  2  0
 16 17  1  0
  8 18  2  0
 18 19  1  0
 19 20  2  0
 20 21  1  0
 21  4  1  0
 20  6  1  0
 17 13  1  0
  1 22  1  0
  1 23  1  0
  1 24  1  0
  2 25  1  0
  3 26  1  0
  3 27  1  0
  3 28  1  0
  7 29  1  0
  9 30  1  0
 14 31  1  0
 15 32  1  0
 16 33  1  0
 18 34  1  0
 19 35  1  0
M  END
>  <Energy>  (30) 
831.2897285975763

>  <compound_id>  (30) 
11110

>  <target_id>  (30) 
1

>  <reference_id>  (30) 
66

>  <inspiration_ids>  (30) 
[2, 66]

>  <energy_score>  (30) 
798.7458618305416

>  <distance_score>  (30) 
13.542966957322905

>  <path>  (30) 
/opt/xchem-fragalysis-2/maxwin/BulkDock/SCRATCH/511014/C11110-P66/C11110-P66.minimised.mol

>  <scratch_subdir>  (30) 
/opt/xchem-fragalysis-2/maxwin/BulkDock/SCRATCH/511014/C11110-P66

>  <fragmenstein_runtime>  (30) 
9.192934513092041

>  <fragmenstein_outcome>  (30) 
too moved

>  <fragmenstein_mode>  (30) 
expansion

>  <fragmenstein_error>  (30) 


$$$$
C11111-P2
     RDKit          3D

 36 38  0  0  0  0  0  0  0  0999 V2000
   -6.1992  -17.6599    8.4757 C   0  0  0  0  0  0  0  0  0  0  0  0
   -4.4554  -17.0941    8.2027 O   0  0  0  0  0  0  0  0  0  0  0  0
   -3.5929  -15.9229    7.9363 C   0  0  0  0  0  0  0  0  0  0  0  0
   -2.2321  -16.5602    8.1573 C   0  0  0  0  0  0  0  0  0  0  0  0
   -1.1203  -15.7262    7.6842 C   0  0  0  0  0  0  0  0  0  0  0  0
   -0.5761  -14.6538    8.2338 N   0  0  0  0  0  0  0  0  0  0  0  0
    0.5720  -14.4444    7.4934 C   0  0  0  0  0  0  0  0  0  0  0  0
    1.6539  -13.5153    7.6228 C   0  0  0  0  0  0  0  0  0  0  0  0
    2.7361  -13.5699    6.7130 C   0  0  0  0  0  0  0  0  0  0  0  0
    4.0506  -12.8766    6.8431 N   0  0  0  0  0  0  0  0  0  0  0  0
    4.2094  -11.2265    7.3086 S   0  0  0  0  0  0  0  0  0  0  0  0
    3.8412  -11.1732    8.7020 O   0  0  0  0  0  0  0  0  0  0  0  0
    3.5581  -10.3717    6.3439 O   0  0  0  0  0  0  0  0  0  0  0  0
    5.9009  -10.5599    7.2446 C   0  0  0  0  0  0  0  0  0  0  0  0
    6.3437   -9.2376    7.2427 C   0  0  0  0  0  0  0  0  0  0  0  0
    7.7639   -9.1176    7.2717 C   0  0  0  0  0  0  0  0  0  0  0  0
    8.3661  -10.3539    7.2103 C   0  0  0  0  0  0  0  0  0  0  0  0
    7.2163  -11.6366    7.1259 S   0  0  0  0  0  0  0  0  0  0  0  0
    2.7101  -14.5915    5.7367 C   0  0  0  0  0  0  0  0  0  0  0  0
    1.6529  -15.5119    5.5767 C   0  0  0  0  0  0  0  0  0  0  0  0
    0.6201  -15.3961    6.4857 C   0  0  0  0  0  0  0  0  0  0  0  0
   -0.4716  -16.2005    6.5798 O   0  0  0  0  0  0  0  0  0  0  0  0
   -7.0857  -17.0819    8.1982 H   0  0  0  0  0  0  0  0  0  0  0  0
   -6.3558  -18.6859    8.6449 H   0  0  0  0  0  0  0  0  0  0  0  0
   -6.1633  -17.7062    9.4890 H   0  0  0  0  0  0  0  0  0  0  0  0
   -3.6802  -15.5152    6.9235 H   0  0  0  0  0  0  0  0  0  0  0  0
   -3.7358  -15.0589    8.5940 H   0  0  0  0  0  0  0  0  0  0  0  0
   -2.0910  -16.7679    9.2254 H   0  0  0  0  0  0  0  0  0  0  0  0
   -2.1837  -17.5429    7.6689 H   0  0  0  0  0  0  0  0  0  0  0  0
    1.6428  -12.8086    8.4465 H   0  0  0  0  0  0  0  0  0  0  0  0
    4.6521  -13.4234    7.4636 H   0  0  0  0  0  0  0  0  0  0  0  0
    5.6553   -8.4007    7.2722 H   0  0  0  0  0  0  0  0  0  0  0  0
    8.3068   -8.1810    7.3188 H   0  0  0  0  0  0  0  0  0  0  0  0
    9.4241  -10.5777    7.1963 H   0  0  0  0  0  0  0  0  0  0  0  0
    3.5615  -14.6823    5.0604 H   0  0  0  0  0  0  0  0  0  0  0  0
    1.6670  -16.2818    4.8159 H   0  0  0  0  0  0  0  0  0  0  0  0
  1  2  1  0
  2  3  1  0
  3  4  1  0
  4  5  1  0
  5  6  2  0
  6  7  1  0
  7  8  2  0
  8  9  1  0
  9 10  1  0
 10 11  1  0
 11 12  2  0
 11 13  2  0
 11 14  1  0
 14 15  2  0
 15 16  1  0
 16 17  2  0
 17 18  1  0
  9 19  2  0
 19 20  1  0
 20 21  2  0
 21 22  1  0
 22  5  1  0
 21  7  1  0
 18 14  1  0
  1 23  1  0
  1 24  1  0
  1 25  1  0
  3 26  1  0
  3 27  1  0
  4 28  1  0
  4 29  1  0
  8 30  1  0
 10 31  1  0
 15 32  1  0
 16 33  1  0
 17 34  1  0
 19 35  1  0
 20 36  1  0
M  END
>  <Energy>  (31) 
124.50409208188317

>  <compound_id>  (31) 
11111

>  <target_id>  (31) 
1

>  <reference_id>  (31) 
2

>  <inspiration_ids>  (31) 
[2, 66]

>  <energy_score>  (31) 
66.9582085997813

>  <distance_score>  (31) 
13.536627936199226

>  <path>  (31) 
/opt/xchem-fragalysis-2/maxwin/BulkDock/SCRATCH/511014/C11111-P2/C11111-P2.minimised.mol

>  <scratch_subdir>  (31) 
/opt/xchem-fragalysis-2/maxwin/BulkDock/SCRATCH/511014/C11111-P2

>  <fragmenstein_runtime>  (31) 
11.372031688690186

>  <fragmenstein_outcome>  (31) 
too moved

>  <fragmenstein_mode>  (31) 
expansion

>  <fragmenstein_error>  (31) 


$$$$
C11111-P66
     RDKit          3D

 36 38  0  0  0  0  0  0  0  0999 V2000
   -1.3110  -14.7782    5.6969 C   0  0  0  0  0  0  0  0  0  0  0  0
   -0.3267  -13.8287    5.3057 O   0  0  0  0  0  0  0  0  0  0  0  0
    0.1140  -13.0055    6.3902 C   0  0  0  0  0  0  0  0  0  0  0  0
    1.2260  -13.6807    7.1860 C   0  0  0  0  0  0  0  0  0  0  0  0
    1.6364  -12.8401    8.3554 C   0  0  0  0  0  0  0  0  0  0  0  0
    2.7260  -12.0977    8.5891 N   0  0  0  0  0  0  0  0  0  0  0  0
    2.5877  -11.6539    9.9142 C   0  0  0  0  0  0  0  0  0  0  0  0
    3.4821  -10.7739   10.9783 C   0  0  0  0  0  0  0  0  0  0  0  0
    3.7542  -10.3735   12.6949 C   0  0  0  0  0  0  0  0  0  0  0  0
    4.7358   -8.7843   13.6326 N   0  0  0  0  0  0  0  0  0  0  0  0
    6.8630   -7.6716   14.1745 S   0  0  0  0  0  0  0  0  0  0  0  0
    6.4000   -6.9818   15.3920 O   0  0  0  0  0  0  0  0  0  0  0  0
    7.2173   -7.5604   12.7642 O   0  0  0  0  0  0  0  0  0  0  0  0
    8.4649   -5.6088   14.4112 C   0  0  0  0  0  0  0  0  0  0  0  0
   10.1993   -4.8613   14.4719 C   0  0  0  0  0  0  0  0  0  0  0  0
   10.7819   -3.7716   15.2242 C   0  0  0  0  0  0  0  0  0  0  0  0
    9.9609   -2.7578   14.9198 C   0  0  0  0  0  0  0  0  0  0  0  0
    8.3311   -3.2450   14.7746 S   0  0  0  0  0  0  0  0  0  0  0  0
    2.1788  -11.0636   12.3151 C   0  0  0  0  0  0  0  0  0  0  0  0
    0.9272  -11.7246   11.5193 C   0  0  0  0  0  0  0  0  0  0  0  0
    1.3423  -12.0819   10.3089 C   0  0  0  0  0  0  0  0  0  0  0  0
    0.7327  -12.8427    9.3807 O   0  0  0  0  0  0  0  0  0  0  0  0
   -0.9163  -15.4687    6.4469 H   0  0  0  0  0  0  0  0  0  0  0  0
   -2.2005  -14.2708    6.0827 H   0  0  0  0  0  0  0  0  0  0  0  0
   -1.5987  -15.3557    4.8140 H   0  0  0  0  0  0  0  0  0  0  0  0
   -0.7373  -12.7261    7.0237 H   0  0  0  0  0  0  0  0  0  0  0  0
    0.4962  -12.0772    5.9496 H   0  0  0  0  0  0  0  0  0  0  0  0
    2.0907  -13.8566    6.5357 H   0  0  0  0  0  0  0  0  0  0  0  0
    0.9108  -14.6675    7.5418 H   0  0  0  0  0  0  0  0  0  0  0  0
    4.0776  -10.2357   10.2318 H   0  0  0  0  0  0  0  0  0  0  0  0
    5.1384   -9.5956   14.1253 H   0  0  0  0  0  0  0  0  0  0  0  0
   10.7999   -4.9767   13.5653 H   0  0  0  0  0  0  0  0  0  0  0  0
   11.8438   -3.5839   15.3325 H   0  0  0  0  0  0  0  0  0  0  0  0
   10.1902   -1.7028   14.9309 H   0  0  0  0  0  0  0  0  0  0  0  0
    1.8482  -11.3593   13.3323 H   0  0  0  0  0  0  0  0  0  0  0  0
    0.0342  -12.0688   12.0197 H   0  0  0  0  0  0  0  0  0  0  0  0
  1  2  1  0
  2  3  1  0
  3  4  1  0
  4  5  1  0
  5  6  2  0
  6  7  1  0
  7  8  2  0
  8  9  1  0
  9 10  1  0
 10 11  1  0
 11 12  2  0
 11 13  2  0
 11 14  1  0
 14 15  2  0
 15 16  1  0
 16 17  2  0
 17 18  1  0
  9 19  2  0
 19 20  1  0
 20 21  2  0
 21 22  1  0
 22  5  1  0
 21  7  1  0
 18 14  1  0
  1 23  1  0
  1 24  1  0
  1 25  1  0
  3 26  1  0
  3 27  1  0
  4 28  1  0
  4 29  1  0
  8 30  1  0
 10 31  1  0
 15 32  1  0
 16 33  1  0
 17 34  1  0
 19 35  1  0
 20 36  1  0
M  END
>  <Energy>  (32) 
1228.0274078432515

>  <compound_id>  (32) 
11111

>  <target_id>  (32) 
1

>  <reference_id>  (32) 
66

>  <inspiration_ids>  (32) 
[2, 66]

>  <energy_score>  (32) 
1170.4815243611533

>  <distance_score>  (32) 
12.114056891794684

>  <path>  (32) 
/opt/xchem-fragalysis-2/maxwin/BulkDock/SCRATCH/511014/C11111-P66/C11111-P66.minimised.mol

>  <scratch_subdir>  (32) 
/opt/xchem-fragalysis-2/maxwin/BulkDock/SCRATCH/511014/C11111-P66

>  <fragmenstein_runtime>  (32) 
10.73335862159729

>  <fragmenstein_outcome>  (32) 
too moved

>  <fragmenstein_mode>  (32) 
expansion

>  <fragmenstein_error>  (32) 


$$$$
C11113-P2
     RDKit          3D

 40 43  0  0  0  0  0  0  0  0999 V2000
    8.5617   -8.8609   10.3725 C   0  0  0  0  0  0  0  0  0  0  0  0
    7.4748   -8.9581   12.0253 C   0  0  0  0  0  0  0  0  0  0  0  0
    5.8629  -10.8074   11.9778 S   0  0  0  0  0  0  0  0  0  0  0  0
    6.2233  -10.7655    9.2912 C   0  0  0  0  0  0  0  0  0  0  0  0
    7.3970  -12.2227    8.5311 C   0  0  0  0  0  0  0  0  0  0  0  0
    7.6940  -13.9924    8.9445 C   0  0  0  0  0  0  0  0  0  0  0  0
    7.6829  -15.1463    7.8593 N   0  0  0  0  0  0  0  0  0  0  0  0
    8.9277  -15.1547    7.0898 C   0  0  0  0  0  0  0  0  0  0  0  0
    9.8869  -16.2338    7.5975 C   0  0  0  0  0  0  0  0  0  0  0  0
    9.3598  -17.5646    7.5324 O   0  0  0  0  0  0  0  0  0  0  0  0
    7.9417  -17.6151    7.3033 C   0  0  0  0  0  0  0  0  0  0  0  0
    7.1334  -16.5883    8.1552 C   0  0  0  0  0  0  0  0  0  0  0  0
    5.5567  -16.9967    8.0401 C   0  0  0  0  0  0  0  0  0  0  0  0
    4.4728  -16.3528    8.4809 N   0  0  0  0  0  0  0  0  0  0  0  0
    3.3936  -17.1837    8.1907 C   0  0  0  0  0  0  0  0  0  0  0  0
    2.0078  -17.0297    8.3761 C   0  0  0  0  0  0  0  0  0  0  0  0
    1.1441  -18.0443    7.9264 C   0  0  0  0  0  0  0  0  0  0  0  0
    1.6455  -19.2216    7.3684 C   0  0  0  0  0  0  0  0  0  0  0  0
    3.0267  -19.4028    7.1995 C   0  0  0  0  0  0  0  0  0  0  0  0
    3.8520  -18.3486    7.6063 C   0  0  0  0  0  0  0  0  0  0  0  0
    5.2242  -18.2504    7.5130 O   0  0  0  0  0  0  0  0  0  0  0  0
    7.5195   -9.4709    8.8788 C   0  0  0  0  0  0  0  0  0  0  0  0
    9.1337   -7.9703   10.1469 H   0  0  0  0  0  0  0  0  0  0  0  0
    7.1555   -8.0514   12.5869 H   0  0  0  0  0  0  0  0  0  0  0  0
    7.5632  -12.0840    7.4649 H   0  0  0  0  0  0  0  0  0  0  0  0
    8.4409  -11.8998    8.7413 H   0  0  0  0  0  0  0  0  0  0  0  0
    8.7096  -14.0190    9.3423 H   0  0  0  0  0  0  0  0  0  0  0  0
    7.0528  -14.3792    9.7444 H   0  0  0  0  0  0  0  0  0  0  0  0
    8.6794  -15.3505    6.0396 H   0  0  0  0  0  0  0  0  0  0  0  0
    9.4176  -14.1741    7.1037 H   0  0  0  0  0  0  0  0  0  0  0  0
   10.1667  -16.0408    8.6395 H   0  0  0  0  0  0  0  0  0  0  0  0
   10.8099  -16.2205    7.0087 H   0  0  0  0  0  0  0  0  0  0  0  0
    7.7499  -17.4818    6.2313 H   0  0  0  0  0  0  0  0  0  0  0  0
    7.6451  -18.6401    7.5510 H   0  0  0  0  0  0  0  0  0  0  0  0
    7.4179  -16.7936    9.1835 H   0  0  0  0  0  0  0  0  0  0  0  0
    1.6176  -16.1423    8.8565 H   0  0  0  0  0  0  0  0  0  0  0  0
    0.0696  -17.9160    8.0330 H   0  0  0  0  0  0  0  0  0  0  0  0
    0.9561  -20.0029    7.0564 H   0  0  0  0  0  0  0  0  0  0  0  0
    3.4381  -20.3014    6.7570 H   0  0  0  0  0  0  0  0  0  0  0  0
    8.0019   -9.4821    7.9049 H   0  0  0  0  0  0  0  0  0  0  0  0
  1  2  2  0
  2  3  1  0
  3  4  1  0
  4  5  1  0
  5  6  1  0
  6  7  1  0
  7  8  1  0
  8  9  1  0
  9 10  1  0
 10 11  1  0
 11 12  1  0
 12 13  1  0
 13 14  2  0
 14 15  1  0
 15 16  2  0
 16 17  1  0
 17 18  2  0
 18 19  1  0
 19 20  2  0
 20 21  1  0
  4 22  2  0
 22  1  1  0
 12  7  1  0
 21 13  1  0
 20 15  1  0
  1 23  1  0
  2 24  1  0
  5 25  1  0
  5 26  1  0
  6 27  1  0
  6 28  1  0
  8 29  1  0
  8 30  1  0
  9 31  1  0
  9 32  1  0
 11 33  1  0
 11 34  1  0
 12 35  1  0
 16 36  1  0
 17 37  1  0
 18 38  1  0
 19 39  1  0
 22 40  1  0
M  END
>  <Energy>  (33) 
983.50009332624177

>  <compound_id>  (33) 
11113

>  <target_id>  (33) 
1

>  <reference_id>  (33) 
2

>  <inspiration_ids>  (33) 
[2, 66]

>  <energy_score>  (33) 
806.1969938879371

>  <distance_score>  (33) 
13.440283599636624

>  <path>  (33) 
/opt/xchem-fragalysis-2/maxwin/BulkDock/SCRATCH/511014/C11113-P2/C11113-P2.minimised.mol

>  <scratch_subdir>  (33) 
/opt/xchem-fragalysis-2/maxwin/BulkDock/SCRATCH/511014/C11113-P2

>  <fragmenstein_runtime>  (33) 
17.587689638137817

>  <fragmenstein_outcome>  (33) 
too moved

>  <fragmenstein_mode>  (33) 
expansion

>  <fragmenstein_error>  (33) 


$$$$
C11113-P66
     RDKit          3D

 40 43  0  0  0  0  0  0  0  0999 V2000
    3.2881   -3.7871   13.0306 C   0  0  0  0  0  0  0  0  0  0  0  0
    2.6823   -3.6337   14.2543 C   0  0  0  0  0  0  0  0  0  0  0  0
    1.0261   -4.0824   14.2093 S   0  0  0  0  0  0  0  0  0  0  0  0
    1.1021   -4.5439   12.5594 C   0  0  0  0  0  0  0  0  0  0  0  0
   -0.1053   -5.0416   11.7446 C   0  0  0  0  0  0  0  0  0  0  0  0
   -1.3149   -5.8339   12.4141 C   0  0  0  0  0  0  0  0  0  0  0  0
   -2.4626   -6.2960   11.4435 N   0  0  0  0  0  0  0  0  0  0  0  0
   -3.1120   -5.0973   10.8609 C   0  0  0  0  0  0  0  0  0  0  0  0
   -4.6005   -5.2734   10.5385 C   0  0  0  0  0  0  0  0  0  0  0  0
   -5.3741   -5.5629   11.7093 O   0  0  0  0  0  0  0  0  0  0  0  0
   -4.6959   -6.4254   12.6393 C   0  0  0  0  0  0  0  0  0  0  0  0
   -3.5478   -7.2698   12.0268 C   0  0  0  0  0  0  0  0  0  0  0  0
   -4.2303   -8.4189   11.1220 C   0  0  0  0  0  0  0  0  0  0  0  0
   -4.1355   -8.7416    9.8307 N   0  0  0  0  0  0  0  0  0  0  0  0
   -4.8936   -9.9035    9.6921 C   0  0  0  0  0  0  0  0  0  0  0  0
   -5.1156  -10.7627    8.5969 C   0  0  0  0  0  0  0  0  0  0  0  0
   -5.8843  -11.9263    8.7828 C   0  0  0  0  0  0  0  0  0  0  0  0
   -6.4473  -12.2130   10.0280 C   0  0  0  0  0  0  0  0  0  0  0  0
   -6.2614  -11.3648   11.1274 C   0  0  0  0  0  0  0  0  0  0  0  0
   -5.4735  -10.2331   10.9035 C   0  0  0  0  0  0  0  0  0  0  0  0
   -5.0887   -9.2822   11.8117 O   0  0  0  0  0  0  0  0  0  0  0  0
    2.3846   -4.3202   12.0639 C   0  0  0  0  0  0  0  0  0  0  0  0
    4.3202   -3.5282   12.8310 H   0  0  0  0  0  0  0  0  0  0  0  0
    3.1174   -3.2537   15.1681 H   0  0  0  0  0  0  0  0  0  0  0  0
   -0.5199   -4.1544   11.2485 H   0  0  0  0  0  0  0  0  0  0  0  0
    0.2872   -5.6844   10.9448 H   0  0  0  0  0  0  0  0  0  0  0  0
   -0.9267   -6.7310   12.8994 H   0  0  0  0  0  0  0  0  0  0  0  0
   -1.7658   -5.2199   13.2028 H   0  0  0  0  0  0  0  0  0  0  0  0
   -2.5730   -4.8154    9.9501 H   0  0  0  0  0  0  0  0  0  0  0  0
   -3.0396   -4.2571   11.5637 H   0  0  0  0  0  0  0  0  0  0  0  0
   -4.7648   -6.0565    9.7918 H   0  0  0  0  0  0  0  0  0  0  0  0
   -4.9976   -4.3460   10.1123 H   0  0  0  0  0  0  0  0  0  0  0  0
   -4.2972   -5.7845   13.4353 H   0  0  0  0  0  0  0  0  0  0  0  0
   -5.4565   -7.0588   13.1085 H   0  0  0  0  0  0  0  0  0  0  0  0
   -3.0604   -7.8257   12.8376 H   0  0  0  0  0  0  0  0  0  0  0  0
   -4.6758  -10.5301    7.6338 H   0  0  0  0  0  0  0  0  0  0  0  0
   -6.0402  -12.6053    7.9469 H   0  0  0  0  0  0  0  0  0  0  0  0
   -7.0460  -13.1039   10.1453 H   0  0  0  0  0  0  0  0  0  0  0  0
   -6.6798  -11.5756   12.1033 H   0  0  0  0  0  0  0  0  0  0  0  0
    2.6551   -4.5194   11.0328 H   0  0  0  0  0  0  0  0  0  0  0  0
  1  2  2  0
  2  3  1  0
  3  4  1  0
  4  5  1  0
  5  6  1  0
  6  7  1  0
  7  8  1  0
  8  9  1  0
  9 10  1  0
 10 11  1  0
 11 12  1  0
 12 13  1  0
 13 14  2  0
 14 15  1  0
 15 16  2  0
 16 17  1  0
 17 18  2  0
 18 19  1  0
 19 20  2  0
 20 21  1  0
  4 22  2  0
 22  1  1  0
 12  7  1  0
 21 13  1  0
 20 15  1  0
  1 23  1  0
  2 24  1  0
  5 25  1  0
  5 26  1  0
  6 27  1  0
  6 28  1  0
  8 29  1  0
  8 30  1  0
  9 31  1  0
  9 32  1  0
 11 33  1  0
 11 34  1  0
 12 35  1  0
 16 36  1  0
 17 37  1  0
 18 38  1  0
 19 39  1  0
 22 40  1  0
M  END
>  <Energy>  (34) 
154.63204737655047

>  <compound_id>  (34) 
11113

>  <target_id>  (34) 
1

>  <reference_id>  (34) 
66

>  <inspiration_ids>  (34) 
[2, 66]

>  <energy_score>  (34) 
-22.671052061744092

>  <distance_score>  (34) 
13.416143590678741

>  <path>  (34) 
/opt/xchem-fragalysis-2/maxwin/BulkDock/SCRATCH/511014/C11113-P66/C11113-P66.minimised.mol

>  <scratch_subdir>  (34) 
/opt/xchem-fragalysis-2/maxwin/BulkDock/SCRATCH/511014/C11113-P66

>  <fragmenstein_runtime>  (34) 
18.432926654815674

>  <fragmenstein_outcome>  (34) 
too moved

>  <fragmenstein_mode>  (34) 
expansion

>  <fragmenstein_error>  (34) 


$$$$
C11114-P2
     RDKit          3D

 34 36  0  0  0  0  0  0  0  0999 V2000
    0.8583  -11.7707   14.5910 O   0  0  0  0  0  0  0  0  0  0  0  0
    1.7381  -12.4273   14.4609 C   0  0  0  0  0  0  0  0  0  0  0  0
    3.7291  -11.6191   15.1146 C   0  0  0  0  0  0  0  0  0  0  0  0
    5.7989  -10.7122   14.0727 S   0  0  0  0  0  0  0  0  0  0  0  0
    8.0923  -10.0257   15.1469 C   0  0  0  0  0  0  0  0  0  0  0  0
    9.5249   -8.4252   15.2757 C   0  0  0  0  0  0  0  0  0  0  0  0
   10.6091   -6.9019   15.2876 C   0  0  0  0  0  0  0  0  0  0  0  0
   10.6040   -4.9792   14.7575 C   0  0  0  0  0  0  0  0  0  0  0  0
    9.2174   -4.7000   14.6992 C   0  0  0  0  0  0  0  0  0  0  0  0
    8.4500   -6.8653   14.7518 S   0  0  0  0  0  0  0  0  0  0  0  0
    1.3533  -13.5864   13.7653 O   0  0  0  0  0  0  0  0  0  0  0  0
    0.1816  -13.8985   12.7850 C   0  0  0  0  0  0  0  0  0  0  0  0
   -0.0568  -15.3058   12.0364 C   0  0  0  0  0  0  0  0  0  0  0  0
   -0.9027  -16.2856   12.3609 N   0  0  0  0  0  0  0  0  0  0  0  0
   -0.7121  -17.2920   11.4318 C   0  0  0  0  0  0  0  0  0  0  0  0
   -1.1471  -18.6322   11.3572 C   0  0  0  0  0  0  0  0  0  0  0  0
   -0.8944  -19.3556   10.1884 C   0  0  0  0  0  0  0  0  0  0  0  0
   -1.4583  -21.1541   10.0458 Br  0  0  0  0  0  0  0  0  0  0  0  0
   -0.1798  -18.7868    9.1353 C   0  0  0  0  0  0  0  0  0  0  0  0
    0.3490  -17.4919    9.2408 C   0  0  0  0  0  0  0  0  0  0  0  0
    0.0641  -16.7930   10.4127 C   0  0  0  0  0  0  0  0  0  0  0  0
    0.4893  -15.5365   10.7848 O   0  0  0  0  0  0  0  0  0  0  0  0
    3.6822  -11.2868   16.1591 H   0  0  0  0  0  0  0  0  0  0  0  0
    3.5655  -10.6770   14.5355 H   0  0  0  0  0  0  0  0  0  0  0  0
    8.1889  -10.3887   16.1971 H   0  0  0  0  0  0  0  0  0  0  0  0
    8.7761  -10.7520   14.6298 H   0  0  0  0  0  0  0  0  0  0  0  0
   11.5925   -6.9517   15.8242 H   0  0  0  0  0  0  0  0  0  0  0  0
   11.3717   -4.3054   15.1509 H   0  0  0  0  0  0  0  0  0  0  0  0
    8.5926   -3.8295   14.9268 H   0  0  0  0  0  0  0  0  0  0  0  0
   -0.6621  -13.8609   13.4627 H   0  0  0  0  0  0  0  0  0  0  0  0
    0.2477  -13.1302   12.0123 H   0  0  0  0  0  0  0  0  0  0  0  0
   -1.6737  -19.0978   12.1860 H   0  0  0  0  0  0  0  0  0  0  0  0
    0.0198  -19.3667    8.2370 H   0  0  0  0  0  0  0  0  0  0  0  0
    0.9611  -17.0616    8.4586 H   0  0  0  0  0  0  0  0  0  0  0  0
  1  2  2  0
  2  3  1  0
  3  4  1  0
  4  5  1  0
  5  6  1  0
  6  7  2  0
  7  8  1  0
  8  9  2  0
  9 10  1  0
  2 11  1  0
 11 12  1  0
 12 13  1  0
 13 14  2  0
 14 15  1  0
 15 16  2  0
 16 17  1  0
 17 18  1  0
 17 19  2  0
 19 20  1  0
 20 21  2  0
 21 22  1  0
 10  6  1  0
 22 13  1  0
 21 15  1  0
  3 23  1  0
  3 24  1  0
  5 25  1  0
  5 26  1  0
  7 27  1  0
  8 28  1  0
  9 29  1  0
 12 30  1  0
 12 31  1  0
 16 32  1  0
 19 33  1  0
 20 34  1  0
M  END
>  <Energy>  (35) 
1110.2687511513054

>  <compound_id>  (35) 
11114

>  <target_id>  (35) 
1

>  <reference_id>  (35) 
2

>  <inspiration_ids>  (35) 
[2, 66]

>  <energy_score>  (35) 
1016.3824342049478

>  <distance_score>  (35) 
10.053766363539525

>  <path>  (35) 
/opt/xchem-fragalysis-2/maxwin/BulkDock/SCRATCH/511014/C11114-P2/C11114-P2.minimised.mol

>  <scratch_subdir>  (35) 
/opt/xchem-fragalysis-2/maxwin/BulkDock/SCRATCH/511014/C11114-P2

>  <fragmenstein_runtime>  (35) 
14.632611274719238

>  <fragmenstein_outcome>  (35) 
too moved

>  <fragmenstein_mode>  (35) 
expansion

>  <fragmenstein_error>  (35) 


$$$$
C11114-P66
     RDKit          3D

 34 36  0  0  0  0  0  0  0  0999 V2000
    2.7118  -10.1902   11.1225 O   0  0  0  0  0  0  0  0  0  0  0  0
    3.5860  -10.7825   11.7459 C   0  0  0  0  0  0  0  0  0  0  0  0
    4.8107  -10.0812   13.4239 C   0  0  0  0  0  0  0  0  0  0  0  0
    6.4561   -8.0862   13.8947 S   0  0  0  0  0  0  0  0  0  0  0  0
    8.7417   -7.3264   14.8363 C   0  0  0  0  0  0  0  0  0  0  0  0
   10.6507   -6.2961   15.0452 C   0  0  0  0  0  0  0  0  0  0  0  0
   10.6217   -4.6382   14.4718 C   0  0  0  0  0  0  0  0  0  0  0  0
   11.0520   -3.3902   15.0235 C   0  0  0  0  0  0  0  0  0  0  0  0
   11.8225   -3.6758   16.0720 C   0  0  0  0  0  0  0  0  0  0  0  0
   11.7876   -5.2795   16.4733 S   0  0  0  0  0  0  0  0  0  0  0  0
    3.8732  -12.3176   11.0183 O   0  0  0  0  0  0  0  0  0  0  0  0
    3.7700  -13.2337    9.6031 C   0  0  0  0  0  0  0  0  0  0  0  0
    3.1746  -14.9303    9.2502 C   0  0  0  0  0  0  0  0  0  0  0  0
    3.3154  -15.6095    8.0984 N   0  0  0  0  0  0  0  0  0  0  0  0
    2.3273  -16.6288    8.1057 C   0  0  0  0  0  0  0  0  0  0  0  0
    1.9251  -17.5931    7.1627 C   0  0  0  0  0  0  0  0  0  0  0  0
    0.8271  -18.4308    7.4735 C   0  0  0  0  0  0  0  0  0  0  0  0
    0.2608  -19.7058    6.1915 Br  0  0  0  0  0  0  0  0  0  0  0  0
    0.1454  -18.3433    8.6920 C   0  0  0  0  0  0  0  0  0  0  0  0
    0.5346  -17.3932    9.6393 C   0  0  0  0  0  0  0  0  0  0  0  0
    1.6069  -16.5702    9.2758 C   0  0  0  0  0  0  0  0  0  0  0  0
    2.0610  -15.4829    9.9439 O   0  0  0  0  0  0  0  0  0  0  0  0
    5.5664  -10.8916   13.4550 H   0  0  0  0  0  0  0  0  0  0  0  0
    4.2678  -10.4344   14.2815 H   0  0  0  0  0  0  0  0  0  0  0  0
    8.0357   -6.5759   15.1462 H   0  0  0  0  0  0  0  0  0  0  0  0
    9.2952   -8.1451   15.3417 H   0  0  0  0  0  0  0  0  0  0  0  0
   10.8385   -4.6047   13.4016 H   0  0  0  0  0  0  0  0  0  0  0  0
   11.0200   -2.4322   14.5192 H   0  0  0  0  0  0  0  0  0  0  0  0
   12.4294   -2.9933   16.6487 H   0  0  0  0  0  0  0  0  0  0  0  0
    3.3952  -12.4916    8.9119 H   0  0  0  0  0  0  0  0  0  0  0  0
    4.8189  -13.4499    9.4289 H   0  0  0  0  0  0  0  0  0  0  0  0
    2.4446  -17.6684    6.2137 H   0  0  0  0  0  0  0  0  0  0  0  0
   -0.6933  -19.0012    8.9124 H   0  0  0  0  0  0  0  0  0  0  0  0
    0.0164  -17.2672   10.5839 H   0  0  0  0  0  0  0  0  0  0  0  0
  1  2  2  0
  2  3  1  0
  3  4  1  0
  4  5  1  0
  5  6  1  0
  6  7  2  0
  7  8  1  0
  8  9  2  0
  9 10  1  0
  2 11  1  0
 11 12  1  0
 12 13  1  0
 13 14  2  0
 14 15  1  0
 15 16  2  0
 16 17  1  0
 17 18  1  0
 17 19  2  0
 19 20  1  0
 20 21  2  0
 21 22  1  0
 10  6  1  0
 22 13  1  0
 21 15  1  0
  3 23  1  0
  3 24  1  0
  5 25  1  0
  5 26  1  0
  7 27  1  0
  8 28  1  0
  9 29  1  0
 12 30  1  0
 12 31  1  0
 16 32  1  0
 19 33  1  0
 20 34  1  0
M  END
>  <Energy>  (36) 
1083.1846972183878

>  <compound_id>  (36) 
11114

>  <target_id>  (36) 
1

>  <reference_id>  (36) 
66

>  <inspiration_ids>  (36) 
[2, 66]

>  <energy_score>  (36) 
989.2983802720404

>  <distance_score>  (36) 
10.335937826041263

>  <path>  (36) 
/opt/xchem-fragalysis-2/maxwin/BulkDock/SCRATCH/511014/C11114-P66/C11114-P66.minimised.mol

>  <scratch_subdir>  (36) 
/opt/xchem-fragalysis-2/maxwin/BulkDock/SCRATCH/511014/C11114-P66

>  <fragmenstein_runtime>  (36) 
13.312554836273193

>  <fragmenstein_outcome>  (36) 
too moved

>  <fragmenstein_mode>  (36) 
expansion

>  <fragmenstein_error>  (36) 


$$$$
C11115-P2
     RDKit          3D

 38 42  0  0  0  0  0  0  0  0999 V2000
    3.0464  -19.9994    6.9979 O   0  0  0  0  0  0  0  0  0  0  0  0
    2.7635  -18.9572    7.5109 C   0  0  0  0  0  0  0  0  0  0  0  0
    1.4883  -18.4210    7.9021 N   0  0  0  0  0  0  0  0  0  0  0  0
    0.1493  -19.0162    7.8897 C   0  0  0  0  0  0  0  0  0  0  0  0
   -0.6642  -19.7967    6.8775 C   0  0  0  0  0  0  0  0  0  0  0  0
   -0.8638  -18.4496    6.1267 C   0  0  0  0  0  0  0  0  0  0  0  0
   -1.0608  -17.9443    7.5982 C   0  0  0  0  0  0  0  0  0  0  0  0
   -2.2674  -18.5680    8.0608 N   0  0  0  0  0  0  0  0  0  0  0  0
   -3.4400  -18.0983    8.6539 C   0  0  0  0  0  0  0  0  0  0  0  0
   -4.4172  -17.1165    8.2447 N   0  0  0  0  0  0  0  0  0  0  0  0
   -6.1942  -17.7144    8.4471 C   0  0  0  0  0  0  0  0  0  0  0  0
   -7.5780  -17.6632    8.0191 C   0  0  0  0  0  0  0  0  0  0  0  0
   -8.6680  -18.7882    8.0002 C   0  0  0  0  0  0  0  0  0  0  0  0
   -8.5354  -19.9141    8.7875 C   0  0  0  0  0  0  0  0  0  0  0  0
   -7.4502  -19.7750    9.6253 C   0  0  0  0  0  0  0  0  0  0  0  0
   -6.3135  -18.7341    9.1935 C   0  0  0  0  0  0  0  0  0  0  0  0
   -4.4599  -19.2978    9.0420 O   0  0  0  0  0  0  0  0  0  0  0  0
   -1.9794  -19.9875    7.7558 C   0  0  0  0  0  0  0  0  0  0  0  0
    3.8653  -18.0328    7.9439 C   0  0  0  0  0  0  0  0  0  0  0  0
    3.8937  -17.1205    8.9983 C   0  0  0  0  0  0  0  0  0  0  0  0
    5.1928  -16.6019    9.2510 C   0  0  0  0  0  0  0  0  0  0  0  0
    6.1382  -17.0859    8.3810 C   0  0  0  0  0  0  0  0  0  0  0  0
    5.4367  -18.1427    7.2409 S   0  0  0  0  0  0  0  0  0  0  0  0
    1.6160  -17.4773    8.2308 H   0  0  0  0  0  0  0  0  0  0  0  0
    0.1744  -19.6591    8.7772 H   0  0  0  0  0  0  0  0  0  0  0  0
   -0.2289  -20.6594    6.3783 H   0  0  0  0  0  0  0  0  0  0  0  0
    0.0110  -18.0612    5.5938 H   0  0  0  0  0  0  0  0  0  0  0  0
   -1.7344  -18.3886    5.4669 H   0  0  0  0  0  0  0  0  0  0  0  0
   -0.8843  -16.9207    7.8868 H   0  0  0  0  0  0  0  0  0  0  0  0
   -7.6931  -16.6611    7.8240 H   0  0  0  0  0  0  0  0  0  0  0  0
   -9.5627  -18.7432    7.4228 H   0  0  0  0  0  0  0  0  0  0  0  0
   -9.2713  -20.6961    8.8750 H   0  0  0  0  0  0  0  0  0  0  0  0
   -7.2378  -20.4685   10.4344 H   0  0  0  0  0  0  0  0  0  0  0  0
   -2.7167  -20.5216    7.1631 H   0  0  0  0  0  0  0  0  0  0  0  0
   -1.7866  -20.5725    8.6632 H   0  0  0  0  0  0  0  0  0  0  0  0
    3.0400  -16.8977    9.6276 H   0  0  0  0  0  0  0  0  0  0  0  0
    5.4141  -15.8480    9.9881 H   0  0  0  0  0  0  0  0  0  0  0  0
    7.1902  -16.8364    8.3224 H   0  0  0  0  0  0  0  0  0  0  0  0
  1  2  2  0
  2  3  1  0
  3  4  1  0
  4  5  1  0
  5  6  1  0
  6  7  1  0
  7  8  1  0
  8  9  1  0
  9 10  2  0
 10 11  1  0
 11 12  2  0
 12 13  1  0
 13 14  2  0
 14 15  1  0
 15 16  2  0
 16 17  1  0
  8 18  1  0
  2 19  1  0
 19 20  2  0
 20 21  1  0
 21 22  2  0
 22 23  1  0
  7  4  1  0
 17  9  1  0
 23 19  1  0
 18  5  1  0
 16 11  1  0
  3 24  1  0
  4 25  1  0
  5 26  1  0
  6 27  1  0
  6 28  1  0
  7 29  1  0
 12 30  1  0
 13 31  1  0
 14 32  1  0
 15 33  1  0
 18 34  1  0
 18 35  1  0
 20 36  1  0
 21 37  1  0
 22 38  1  0
M  END
>  <Energy>  (37) 
325.18423755927381

>  <compound_id>  (37) 
11115

>  <target_id>  (37) 
1

>  <reference_id>  (37) 
2

>  <inspiration_ids>  (37) 
[2, 66]

>  <energy_score>  (37) 
269.87785751062285

>  <distance_score>  (37) 
14.901876592864303

>  <path>  (37) 
/opt/xchem-fragalysis-2/maxwin/BulkDock/SCRATCH/511014/C11115-P2/C11115-P2.minimised.mol

>  <scratch_subdir>  (37) 
/opt/xchem-fragalysis-2/maxwin/BulkDock/SCRATCH/511014/C11115-P2

>  <fragmenstein_runtime>  (37) 
17.664973735809326

>  <fragmenstein_outcome>  (37) 
too moved

>  <fragmenstein_mode>  (37) 
expansion

>  <fragmenstein_error>  (37) 


$$$$
C11115-P66
     RDKit          3D

 38 42  0  0  0  0  0  0  0  0999 V2000
    5.1074   -7.1975   13.1724 O   0  0  0  0  0  0  0  0  0  0  0  0
    4.1983   -6.9562   12.3864 C   0  0  0  0  0  0  0  0  0  0  0  0
    3.2143   -8.0101   11.5054 N   0  0  0  0  0  0  0  0  0  0  0  0
    3.0900  -10.0325   11.5162 C   0  0  0  0  0  0  0  0  0  0  0  0
    3.0468  -10.7627   10.2584 C   0  0  0  0  0  0  0  0  0  0  0  0
    1.4265  -10.0037   10.5084 C   0  0  0  0  0  0  0  0  0  0  0  0
    1.3939  -11.0583   11.5183 C   0  0  0  0  0  0  0  0  0  0  0  0
    1.5774  -12.4654   10.9690 N   0  0  0  0  0  0  0  0  0  0  0  0
    0.7155  -13.7620   11.0687 C   0  0  0  0  0  0  0  0  0  0  0  0
   -0.5735  -14.0257   11.1904 N   0  0  0  0  0  0  0  0  0  0  0  0
   -0.8108  -15.3132   10.6473 C   0  0  0  0  0  0  0  0  0  0  0  0
   -1.9160  -15.9668   10.1004 C   0  0  0  0  0  0  0  0  0  0  0  0
   -1.8094  -17.2766    9.5811 C   0  0  0  0  0  0  0  0  0  0  0  0
   -0.6031  -17.9604    9.6377 C   0  0  0  0  0  0  0  0  0  0  0  0
    0.5414  -17.3006   10.0821 C   0  0  0  0  0  0  0  0  0  0  0  0
    0.3569  -15.9812   10.4964 C   0  0  0  0  0  0  0  0  0  0  0  0
    1.2763  -15.0098   10.5768 O   0  0  0  0  0  0  0  0  0  0  0  0
    2.9582  -12.2977   10.3574 C   0  0  0  0  0  0  0  0  0  0  0  0
    3.9590   -5.4493   12.1339 C   0  0  0  0  0  0  0  0  0  0  0  0
    4.5986   -4.6024   11.2335 C   0  0  0  0  0  0  0  0  0  0  0  0
    4.3634   -3.2118   11.4494 C   0  0  0  0  0  0  0  0  0  0  0  0
    3.5982   -3.0007   12.5663 C   0  0  0  0  0  0  0  0  0  0  0  0
    3.1366   -4.4618   13.3081 S   0  0  0  0  0  0  0  0  0  0  0  0
    2.5018   -7.4821   11.0148 H   0  0  0  0  0  0  0  0  0  0  0  0
    3.5606  -10.4573   12.4348 H   0  0  0  0  0  0  0  0  0  0  0  0
    3.8370  -10.5145    9.5773 H   0  0  0  0  0  0  0  0  0  0  0  0
    1.3028   -9.0071   10.9110 H   0  0  0  0  0  0  0  0  0  0  0  0
    0.6482   -9.8827    9.7943 H   0  0  0  0  0  0  0  0  0  0  0  0
    0.4545  -10.9978   12.0330 H   0  0  0  0  0  0  0  0  0  0  0  0
   -2.8063  -15.3885   10.0140 H   0  0  0  0  0  0  0  0  0  0  0  0
   -2.6642  -17.7644    9.1201 H   0  0  0  0  0  0  0  0  0  0  0  0
   -0.5303  -18.9747    9.2514 H   0  0  0  0  0  0  0  0  0  0  0  0
    1.5288  -17.7383   10.0044 H   0  0  0  0  0  0  0  0  0  0  0  0
    3.1809  -12.6655    9.3560 H   0  0  0  0  0  0  0  0  0  0  0  0
    3.7817  -12.7365   10.8931 H   0  0  0  0  0  0  0  0  0  0  0  0
    5.2782   -4.9597   10.4704 H   0  0  0  0  0  0  0  0  0  0  0  0
    4.7881   -2.4134   10.8524 H   0  0  0  0  0  0  0  0  0  0  0  0
    3.2942   -2.0529   12.9891 H   0  0  0  0  0  0  0  0  0  0  0  0
  1  2  2  0
  2  3  1  0
  3  4  1  0
  4  5  1  0
  5  6  1  0
  6  7  1  0
  7  8  1  0
  8  9  1  0
  9 10  2  0
 10 11  1  0
 11 12  2  0
 12 13  1  0
 13 14  2  0
 14 15  1  0
 15 16  2  0
 16 17  1  0
  8 18  1  0
  2 19  1  0
 19 20  2  0
 20 21  1  0
 21 22  2  0
 22 23  1  0
  7  4  1  0
 17  9  1  0
 23 19  1  0
 18  5  1  0
 16 11  1  0
  3 24  1  0
  4 25  1  0
  5 26  1  0
  6 27  1  0
  6 28  1  0
  7 29  1  0
 12 30  1  0
 13 31  1  0
 14 32  1  0
 15 33  1  0
 18 34  1  0
 18 35  1  0
 20 36  1  0
 21 37  1  0
 22 38  1  0
M  END
>  <Energy>  (38) 
277.59542171015818

>  <compound_id>  (38) 
11115

>  <target_id>  (38) 
1

>  <reference_id>  (38) 
66

>  <inspiration_ids>  (38) 
[2, 66]

>  <energy_score>  (38) 
222.28904166151733

>  <distance_score>  (38) 
11.488342629089589

>  <path>  (38) 
/opt/xchem-fragalysis-2/maxwin/BulkDock/SCRATCH/511014/C11115-P66/C11115-P66.minimised.mol

>  <scratch_subdir>  (38) 
/opt/xchem-fragalysis-2/maxwin/BulkDock/SCRATCH/511014/C11115-P66

>  <fragmenstein_runtime>  (38) 
17.958815574645996

>  <fragmenstein_outcome>  (38) 
too moved

>  <fragmenstein_mode>  (38) 
expansion

>  <fragmenstein_error>  (38) 


$$$$
C11116-P2
     RDKit          3D

 35 38  0  0  0  0  0  0  0  0999 V2000
   10.9472  -13.9188    7.6293 O   0  0  0  0  0  0  0  0  0  0  0  0
   10.4974  -13.1236    8.4107 C   0  0  0  0  0  0  0  0  0  0  0  0
    9.1151  -12.7727    8.7227 N   0  0  0  0  0  0  0  0  0  0  0  0
    7.8616  -13.2000    8.1211 C   0  0  0  0  0  0  0  0  0  0  0  0
    8.2633  -13.2488    6.7767 C   0  0  0  0  0  0  0  0  0  0  0  0
    8.4750  -12.0129    6.1746 C   0  0  0  0  0  0  0  0  0  0  0  0
    8.0171  -10.8623    6.8308 C   0  0  0  0  0  0  0  0  0  0  0  0
    7.0968  -10.9456    7.9528 C   0  0  0  0  0  0  0  0  0  0  0  0
    6.6788  -12.2974    8.4584 C   0  0  0  0  0  0  0  0  0  0  0  0
    4.8835  -12.8611    9.1523 C   0  0  0  0  0  0  0  0  0  0  0  0
    3.7223  -12.0906    9.3721 N   0  0  0  0  0  0  0  0  0  0  0  0
    2.8519  -12.9207   10.0094 C   0  0  0  0  0  0  0  0  0  0  0  0
    1.4311  -12.7829   10.9720 C   0  0  0  0  0  0  0  0  0  0  0  0
    0.5602  -14.1152   11.2811 C   0  0  0  0  0  0  0  0  0  0  0  0
    0.9309  -15.4182   10.5927 C   0  0  0  0  0  0  0  0  0  0  0  0
    2.1944  -15.5422    9.6815 C   0  0  0  0  0  0  0  0  0  0  0  0
    3.1653  -14.2981    9.5294 C   0  0  0  0  0  0  0  0  0  0  0  0
    4.5605  -14.2795    9.4523 O   0  0  0  0  0  0  0  0  0  0  0  0
   11.4286  -12.2332    9.1609 C   0  0  0  0  0  0  0  0  0  0  0  0
   12.5498  -12.5117    9.9209 C   0  0  0  0  0  0  0  0  0  0  0  0
   13.1950  -11.3338   10.4252 C   0  0  0  0  0  0  0  0  0  0  0  0
   12.5793  -10.1844    9.9915 C   0  0  0  0  0  0  0  0  0  0  0  0
   11.1981  -10.5234    9.0648 S   0  0  0  0  0  0  0  0  0  0  0  0
    9.1067  -12.1241    9.4893 H   0  0  0  0  0  0  0  0  0  0  0  0
    8.8755  -14.0731    6.4333 H   0  0  0  0  0  0  0  0  0  0  0  0
    9.0494  -11.9388    5.2564 H   0  0  0  0  0  0  0  0  0  0  0  0
    8.2347   -9.9240    6.3409 H   0  0  0  0  0  0  0  0  0  0  0  0
    6.4700  -10.0736    8.0791 H   0  0  0  0  0  0  0  0  0  0  0  0
    1.0962  -11.7927   11.3030 H   0  0  0  0  0  0  0  0  0  0  0  0
   -0.3112  -14.0382   11.9146 H   0  0  0  0  0  0  0  0  0  0  0  0
    0.3493  -16.3155   10.7864 H   0  0  0  0  0  0  0  0  0  0  0  0
    2.5521  -16.5203    9.3695 H   0  0  0  0  0  0  0  0  0  0  0  0
   12.8904  -13.5244   10.1010 H   0  0  0  0  0  0  0  0  0  0  0  0
   14.0937  -11.3466   11.0292 H   0  0  0  0  0  0  0  0  0  0  0  0
   12.8726   -9.1568   10.1473 H   0  0  0  0  0  0  0  0  0  0  0  0
  1  2  2  0
  2  3  1  0
  3  4  1  0
  4  5  2  0
  5  6  1  0
  6  7  2  0
  7  8  1  0
  8  9  2  0
  9 10  1  0
 10 11  2  0
 11 12  1  0
 12 13  2  0
 13 14  1  0
 14 15  2  0
 15 16  1  0
 16 17  2  0
 17 18  1  0
  2 19  1  0
 19 20  2  0
 20 21  1  0
 21 22  2  0
 22 23  1  0
  9  4  1  0
 18 10  1  0
 23 19  1  0
 17 12  1  0
  3 24  1  0
  5 25  1  0
  6 26  1  0
  7 27  1  0
  8 28  1  0
 13 29  1  0
 14 30  1  0
 15 31  1  0
 16 32  1  0
 20 33  1  0
 21 34  1  0
 22 35  1  0
M  END
>  <Energy>  (39) 
342.86308456370887

>  <compound_id>  (39) 
11116

>  <target_id>  (39) 
1

>  <reference_id>  (39) 
2

>  <inspiration_ids>  (39) 
[2, 66]

>  <energy_score>  (39) 
239.41765103519913

>  <distance_score>  (39) 
14.27279565675509

>  <path>  (39) 
/opt/xchem-fragalysis-2/maxwin/BulkDock/SCRATCH/511014/C11116-P2/C11116-P2.minimised.mol

>  <scratch_subdir>  (39) 
/opt/xchem-fragalysis-2/maxwin/BulkDock/SCRATCH/511014/C11116-P2

>  <fragmenstein_runtime>  (39) 
14.899668455123901

>  <fragmenstein_outcome>  (39) 
too moved

>  <fragmenstein_mode>  (39) 
expansion

>  <fragmenstein_error>  (39) 


$$$$
C11116-P66
     RDKit          3D

 35 38  0  0  0  0  0  0  0  0999 V2000
    5.2986  -11.6357   13.8338 O   0  0  0  0  0  0  0  0  0  0  0  0
    4.5101  -10.7385   13.5455 C   0  0  0  0  0  0  0  0  0  0  0  0
    3.2597  -10.7894   12.2264 N   0  0  0  0  0  0  0  0  0  0  0  0
    2.7315  -12.2147   11.0551 C   0  0  0  0  0  0  0  0  0  0  0  0
    3.4222  -12.0239    9.9873 C   0  0  0  0  0  0  0  0  0  0  0  0
    3.0355  -10.7806   10.0908 C   0  0  0  0  0  0  0  0  0  0  0  0
    1.5398  -10.4500   10.7870 C   0  0  0  0  0  0  0  0  0  0  0  0
    0.5718  -11.4983   11.3314 C   0  0  0  0  0  0  0  0  0  0  0  0
    1.0612  -12.7448   11.2071 C   0  0  0  0  0  0  0  0  0  0  0  0
   -0.0477  -14.2483   10.9905 C   0  0  0  0  0  0  0  0  0  0  0  0
   -0.3983  -15.2602   10.1048 N   0  0  0  0  0  0  0  0  0  0  0  0
   -1.9866  -15.4189    9.9930 C   0  0  0  0  0  0  0  0  0  0  0  0
   -3.0597  -15.8617    9.0889 C   0  0  0  0  0  0  0  0  0  0  0  0
   -4.5899  -14.9340    8.8899 C   0  0  0  0  0  0  0  0  0  0  0  0
   -5.4568  -14.5283   10.2722 C   0  0  0  0  0  0  0  0  0  0  0  0
   -4.2749  -14.7600   11.5762 C   0  0  0  0  0  0  0  0  0  0  0  0
   -2.5842  -14.9662   11.1228 C   0  0  0  0  0  0  0  0  0  0  0  0
   -1.1834  -14.3463   11.7962 O   0  0  0  0  0  0  0  0  0  0  0  0
    4.6418   -9.5681   14.5758 C   0  0  0  0  0  0  0  0  0  0  0  0
    4.8442   -9.8472   15.9423 C   0  0  0  0  0  0  0  0  0  0  0  0
    4.8604   -8.7062   16.8010 C   0  0  0  0  0  0  0  0  0  0  0  0
    4.8946   -7.5483   16.0734 C   0  0  0  0  0  0  0  0  0  0  0  0
    4.9907   -7.8997   14.4182 S   0  0  0  0  0  0  0  0  0  0  0  0
    2.8207   -9.9139   12.1573 H   0  0  0  0  0  0  0  0  0  0  0  0
    3.6114  -12.5530    9.0924 H   0  0  0  0  0  0  0  0  0  0  0  0
    3.8221  -10.0554   10.0054 H   0  0  0  0  0  0  0  0  0  0  0  0
    1.4243   -9.3782   10.8403 H   0  0  0  0  0  0  0  0  0  0  0  0
   -0.4217  -11.2920   11.6714 H   0  0  0  0  0  0  0  0  0  0  0  0
   -2.7533  -16.4887    8.2476 H   0  0  0  0  0  0  0  0  0  0  0  0
   -4.8396  -14.4216    7.9656 H   0  0  0  0  0  0  0  0  0  0  0  0
   -6.2710  -13.8150   10.3236 H   0  0  0  0  0  0  0  0  0  0  0  0
   -4.4789  -14.4169   12.6065 H   0  0  0  0  0  0  0  0  0  0  0  0
    4.8555  -10.8678   16.3107 H   0  0  0  0  0  0  0  0  0  0  0  0
    4.8825   -8.7490   17.8825 H   0  0  0  0  0  0  0  0  0  0  0  0
    4.9479   -6.5306   16.4337 H   0  0  0  0  0  0  0  0  0  0  0  0
  1  2  2  0
  2  3  1  0
  3  4  1  0
  4  5  2  0
  5  6  1  0
  6  7  2  0
  7  8  1  0
  8  9  2  0
  9 10  1  0
 10 11  2  0
 11 12  1  0
 12 13  2  0
 13 14  1  0
 14 15  2  0
 15 16  1  0
 16 17  2  0
 17 18  1  0
  2 19  1  0
 19 20  2  0
 20 21  1  0
 21 22  2  0
 22 23  1  0
  9  4  1  0
 18 10  1  0
 23 19  1  0
 17 12  1  0
  3 24  1  0
  5 25  1  0
  6 26  1  0
  7 27  1  0
  8 28  1  0
 13 29  1  0
 14 30  1  0
 15 31  1  0
 16 32  1  0
 20 33  1  0
 21 34  1  0
 22 35  1  0
M  END
>  <Energy>  (40) 
802.87080777254471

>  <compound_id>  (40) 
11116

>  <target_id>  (40) 
1

>  <reference_id>  (40) 
66

>  <inspiration_ids>  (40) 
[2, 66]

>  <energy_score>  (40) 
699.4253742440344

>  <distance_score>  (40) 
11.724331433443135

>  <path>  (40) 
/opt/xchem-fragalysis-2/maxwin/BulkDock/SCRATCH/511014/C11116-P66/C11116-P66.minimised.mol

>  <scratch_subdir>  (40) 
/opt/xchem-fragalysis-2/maxwin/BulkDock/SCRATCH/511014/C11116-P66

>  <fragmenstein_runtime>  (40) 
13.97249460220337

>  <fragmenstein_outcome>  (40) 
too moved

>  <fragmenstein_mode>  (40) 
expansion

>  <fragmenstein_error>  (40) 


$$$$
C11117-P2
     RDKit          3D

 37 40  0  0  0  0  0  0  0  0999 V2000
    8.8708   -6.9310   14.7405 O   0  0  0  0  0  0  0  0  0  0  0  0
    7.9658   -6.2154   15.0344 C   0  0  0  0  0  0  0  0  0  0  0  0
    6.2065   -6.8315   14.8221 N   0  0  0  0  0  0  0  0  0  0  0  0
    5.5124   -8.4345   13.9933 C   0  0  0  0  0  0  0  0  0  0  0  0
    4.4101   -7.6487   13.0900 C   0  0  0  0  0  0  0  0  0  0  0  0
    3.4448   -8.4668   11.5686 C   0  0  0  0  0  0  0  0  0  0  0  0
    3.2408  -10.3357   11.8948 N   0  0  0  0  0  0  0  0  0  0  0  0
    3.3957  -11.6059   10.7311 C   0  0  0  0  0  0  0  0  0  0  0  0
    2.8579  -12.2011    9.6483 N   0  0  0  0  0  0  0  0  0  0  0  0
    3.2869  -13.6871    9.4614 C   0  0  0  0  0  0  0  0  0  0  0  0
    2.7963  -15.0973    9.0686 C   0  0  0  0  0  0  0  0  0  0  0  0
    3.5869  -16.2652    9.1099 C   0  0  0  0  0  0  0  0  0  0  0  0
    4.8907  -16.1472    9.5590 C   0  0  0  0  0  0  0  0  0  0  0  0
    5.3778  -14.8698   10.0382 C   0  0  0  0  0  0  0  0  0  0  0  0
    4.4703  -13.7423   10.0478 C   0  0  0  0  0  0  0  0  0  0  0  0
    4.2356  -12.7757   11.0483 O   0  0  0  0  0  0  0  0  0  0  0  0
    4.3972  -10.0775   13.4912 C   0  0  0  0  0  0  0  0  0  0  0  0
    8.4621   -4.3505   15.4777 C   0  0  0  0  0  0  0  0  0  0  0  0
    7.8987   -2.9976   15.0209 C   0  0  0  0  0  0  0  0  0  0  0  0
    8.7216   -1.8108   15.0920 C   0  0  0  0  0  0  0  0  0  0  0  0
   10.0657   -2.0569   15.2003 C   0  0  0  0  0  0  0  0  0  0  0  0
   10.4910   -3.7148   15.0523 S   0  0  0  0  0  0  0  0  0  0  0  0
    5.5626   -6.1255   15.2028 H   0  0  0  0  0  0  0  0  0  0  0  0
    6.5382   -8.4228   13.5973 H   0  0  0  0  0  0  0  0  0  0  0  0
    3.8665   -7.5016   13.9971 H   0  0  0  0  0  0  0  0  0  0  0  0
    4.7331   -6.6658   12.7206 H   0  0  0  0  0  0  0  0  0  0  0  0
    2.5698   -7.7720   11.4498 H   0  0  0  0  0  0  0  0  0  0  0  0
    3.9939   -8.3983   10.5909 H   0  0  0  0  0  0  0  0  0  0  0  0
    1.8141  -15.2825    8.6374 H   0  0  0  0  0  0  0  0  0  0  0  0
    3.1903  -17.2194    8.7756 H   0  0  0  0  0  0  0  0  0  0  0  0
    5.5429  -17.0159    9.5506 H   0  0  0  0  0  0  0  0  0  0  0  0
    6.3692  -14.7231   10.4318 H   0  0  0  0  0  0  0  0  0  0  0  0
    3.7993  -10.4475   14.3097 H   0  0  0  0  0  0  0  0  0  0  0  0
    5.1583  -10.8727   13.3865 H   0  0  0  0  0  0  0  0  0  0  0  0
    6.8632   -2.8928   14.7071 H   0  0  0  0  0  0  0  0  0  0  0  0
    8.3392   -0.8152   14.9007 H   0  0  0  0  0  0  0  0  0  0  0  0
   10.8623   -1.3271   15.1617 H   0  0  0  0  0  0  0  0  0  0  0  0
  1  2  2  0
  2  3  1  0
  3  4  1  0
  4  5  1  0
  5  6  1  0
  6  7  1  0
  7  8  1  0
  8  9  2  0
  9 10  1  0
 10 11  2  0
 11 12  1  0
 12 13  2  0
 13 14  1  0
 14 15  2  0
 15 16  1  0
  7 17  1  0
  2 18  1  0
 18 19  2  0
 19 20  1  0
 20 21  2  0
 21 22  1  0
 17  4  1  0
 22 18  1  0
 16  8  1  0
 15 10  1  0
  3 23  1  0
  4 24  1  0
  5 25  1  0
  5 26  1  0
  6 27  1  0
  6 28  1  0
 11 29  1  0
 12 30  1  0
 13 31  1  0
 14 32  1  0
 17 33  1  0
 17 34  1  0
 19 35  1  0
 20 36  1  0
 21 37  1  0
M  END
>  <Energy>  (41) 
732.15421714369973

>  <compound_id>  (41) 
11117

>  <target_id>  (41) 
1

>  <reference_id>  (41) 
2

>  <inspiration_ids>  (41) 
[2, 66]

>  <energy_score>  (41) 
705.5870220023867

>  <distance_score>  (41) 
12.368606304551468

>  <path>  (41) 
/opt/xchem-fragalysis-2/maxwin/BulkDock/SCRATCH/511014/C11117-P2/C11117-P2.minimised.mol

>  <scratch_subdir>  (41) 
/opt/xchem-fragalysis-2/maxwin/BulkDock/SCRATCH/511014/C11117-P2

>  <fragmenstein_runtime>  (41) 
15.657013893127441

>  <fragmenstein_outcome>  (41) 
too moved

>  <fragmenstein_mode>  (41) 
expansion

>  <fragmenstein_error>  (41) 


$$$$
C11117-P66
     RDKit          3D

 37 40  0  0  0  0  0  0  0  0999 V2000
   -0.1534  -17.6528    8.8346 O   0  0  0  0  0  0  0  0  0  0  0  0
    0.5601  -17.9198    7.9129 C   0  0  0  0  0  0  0  0  0  0  0  0
    0.3027  -18.6790    6.7177 N   0  0  0  0  0  0  0  0  0  0  0  0
   -0.9259  -19.2759    6.2109 C   0  0  0  0  0  0  0  0  0  0  0  0
   -0.9595  -19.3551    4.6874 C   0  0  0  0  0  0  0  0  0  0  0  0
   -2.1236  -20.3056    4.4158 C   0  0  0  0  0  0  0  0  0  0  0  0
   -2.0595  -21.2625    5.5073 N   0  0  0  0  0  0  0  0  0  0  0  0
   -3.0444  -22.1761    5.6639 C   0  0  0  0  0  0  0  0  0  0  0  0
   -4.1055  -22.3784    4.9007 N   0  0  0  0  0  0  0  0  0  0  0  0
   -4.7939  -23.3831    5.5400 C   0  0  0  0  0  0  0  0  0  0  0  0
   -6.0401  -23.9678    5.2736 C   0  0  0  0  0  0  0  0  0  0  0  0
   -6.5240  -24.9351    6.1696 C   0  0  0  0  0  0  0  0  0  0  0  0
   -5.7789  -25.3210    7.2915 C   0  0  0  0  0  0  0  0  0  0  0  0
   -4.5352  -24.7412    7.5733 C   0  0  0  0  0  0  0  0  0  0  0  0
   -4.0994  -23.7769    6.6715 C   0  0  0  0  0  0  0  0  0  0  0  0
   -2.9732  -23.0088    6.7520 O   0  0  0  0  0  0  0  0  0  0  0  0
   -1.2495  -20.7415    6.6233 C   0  0  0  0  0  0  0  0  0  0  0  0
    1.9498  -17.3690    7.9297 C   0  0  0  0  0  0  0  0  0  0  0  0
    2.7825  -16.9601    6.8987 C   0  0  0  0  0  0  0  0  0  0  0  0
    4.0792  -16.5548    7.3378 C   0  0  0  0  0  0  0  0  0  0  0  0
    4.1761  -16.5272    8.7080 C   0  0  0  0  0  0  0  0  0  0  0  0
    2.7317  -17.0756    9.4408 S   0  0  0  0  0  0  0  0  0  0  0  0
    1.1644  -18.7722    6.1941 H   0  0  0  0  0  0  0  0  0  0  0  0
   -1.7464  -18.6372    6.5607 H   0  0  0  0  0  0  0  0  0  0  0  0
   -1.1079  -18.3803    4.2144 H   0  0  0  0  0  0  0  0  0  0  0  0
   -0.0243  -19.7798    4.3013 H   0  0  0  0  0  0  0  0  0  0  0  0
   -3.0712  -19.7554    4.4350 H   0  0  0  0  0  0  0  0  0  0  0  0
   -2.0167  -20.7900    3.4395 H   0  0  0  0  0  0  0  0  0  0  0  0
   -6.6137  -23.6680    4.4037 H   0  0  0  0  0  0  0  0  0  0  0  0
   -7.4887  -25.4023    5.9794 H   0  0  0  0  0  0  0  0  0  0  0  0
   -6.1742  -26.0801    7.9646 H   0  0  0  0  0  0  0  0  0  0  0  0
   -3.9570  -24.9980    8.4528 H   0  0  0  0  0  0  0  0  0  0  0  0
   -0.3337  -21.3348    6.7218 H   0  0  0  0  0  0  0  0  0  0  0  0
   -1.7856  -20.7550    7.5778 H   0  0  0  0  0  0  0  0  0  0  0  0
    2.4926  -16.9956    5.8534 H   0  0  0  0  0  0  0  0  0  0  0  0
    4.8784  -16.3016    6.6509 H   0  0  0  0  0  0  0  0  0  0  0  0
    5.0270  -16.2484    9.3137 H   0  0  0  0  0  0  0  0  0  0  0  0
  1  2  2  0
  2  3  1  0
  3  4  1  0
  4  5  1  0
  5  6  1  0
  6  7  1  0
  7  8  1  0
  8  9  2  0
  9 10  1  0
 10 11  2  0
 11 12  1  0
 12 13  2  0
 13 14  1  0
 14 15  2  0
 15 16  1  0
  7 17  1  0
  2 18  1  0
 18 19  2  0
 19 20  1  0
 20 21  2  0
 21 22  1  0
 17  4  1  0
 22 18  1  0
 16  8  1  0
 15 10  1  0
  3 23  1  0
  4 24  1  0
  5 25  1  0
  5 26  1  0
  6 27  1  0
  6 28  1  0
 11 29  1  0
 12 30  1  0
 13 31  1  0
 14 32  1  0
 17 33  1  0
 17 34  1  0
 19 35  1  0
 20 36  1  0
 21 37  1  0
M  END
>  <Energy>  (42) 
-2.2414260120066976

>  <compound_id>  (42) 
11117

>  <target_id>  (42) 
1

>  <reference_id>  (42) 
66

>  <inspiration_ids>  (42) 
[2, 66]

>  <energy_score>  (42) 
-28.80862115331749

>  <distance_score>  (42) 
15.316425280443896

>  <path>  (42) 
/opt/xchem-fragalysis-2/maxwin/BulkDock/SCRATCH/511014/C11117-P66/C11117-P66.minimised.mol

>  <scratch_subdir>  (42) 
/opt/xchem-fragalysis-2/maxwin/BulkDock/SCRATCH/511014/C11117-P66

>  <fragmenstein_runtime>  (42) 
19.043060302734375

>  <fragmenstein_outcome>  (42) 
too moved

>  <fragmenstein_mode>  (42) 
expansion

>  <fragmenstein_error>  (42) 


$$$$
C11118-P2
     RDKit          3D

 34 37  0  0  0  0  0  0  0  0999 V2000
    9.6950  -11.4718   13.6034 O   0  0  0  0  0  0  0  0  0  0  0  0
    8.5662  -11.4067   14.1252 C   0  0  0  0  0  0  0  0  0  0  0  0
    6.9404  -12.3786   13.3690 N   0  0  0  0  0  0  0  0  0  0  0  0
    6.7891  -13.6474   11.8913 C   0  0  0  0  0  0  0  0  0  0  0  0
    7.5914  -14.1322   10.6664 C   0  0  0  0  0  0  0  0  0  0  0  0
    7.6373  -15.2069    9.5973 N   0  0  0  0  0  0  0  0  0  0  0  0
    6.5595  -15.8995    9.2898 C   0  0  0  0  0  0  0  0  0  0  0  0
    5.4319  -15.5028    9.9495 C   0  0  0  0  0  0  0  0  0  0  0  0
    4.1786  -16.3621    9.5891 C   0  0  0  0  0  0  0  0  0  0  0  0
    3.9219  -17.6091    9.9650 N   0  0  0  0  0  0  0  0  0  0  0  0
    2.8032  -17.9883    9.2416 C   0  0  0  0  0  0  0  0  0  0  0  0
    2.1062  -19.2074    9.1623 C   0  0  0  0  0  0  0  0  0  0  0  0
    1.0486  -19.3267    8.2425 C   0  0  0  0  0  0  0  0  0  0  0  0
    0.6644  -18.2415    7.4494 C   0  0  0  0  0  0  0  0  0  0  0  0
    1.3423  -17.0150    7.5274 C   0  0  0  0  0  0  0  0  0  0  0  0
    2.4039  -16.9412    8.4319 C   0  0  0  0  0  0  0  0  0  0  0  0
    3.2709  -15.8861    8.6555 O   0  0  0  0  0  0  0  0  0  0  0  0
    5.6408  -14.3208   11.1520 C   0  0  0  0  0  0  0  0  0  0  0  0
    8.6803  -10.5576   15.5618 C   0  0  0  0  0  0  0  0  0  0  0  0
    8.7517  -10.8567   16.9819 C   0  0  0  0  0  0  0  0  0  0  0  0
    9.4349  -12.0652   17.3198 C   0  0  0  0  0  0  0  0  0  0  0  0
   10.5432  -12.1801   16.5259 C   0  0  0  0  0  0  0  0  0  0  0  0
   10.7482  -10.6320   15.8093 S   0  0  0  0  0  0  0  0  0  0  0  0
    6.1154  -12.1230   13.8972 H   0  0  0  0  0  0  0  0  0  0  0  0
    8.1995  -13.4688   10.0565 H   0  0  0  0  0  0  0  0  0  0  0  0
    6.6363  -16.6807    8.5477 H   0  0  0  0  0  0  0  0  0  0  0  0
    2.3945  -20.0414    9.7923 H   0  0  0  0  0  0  0  0  0  0  0  0
    0.4982  -20.2625    8.1811 H   0  0  0  0  0  0  0  0  0  0  0  0
   -0.1763  -18.3504    6.7687 H   0  0  0  0  0  0  0  0  0  0  0  0
    1.0763  -16.1758    6.8982 H   0  0  0  0  0  0  0  0  0  0  0  0
    4.7622  -13.6577   11.0502 H   0  0  0  0  0  0  0  0  0  0  0  0
    8.0739  -10.3939   17.6825 H   0  0  0  0  0  0  0  0  0  0  0  0
    9.2712  -12.6719   18.2006 H   0  0  0  0  0  0  0  0  0  0  0  0
   11.3523  -12.8940   16.5776 H   0  0  0  0  0  0  0  0  0  0  0  0
  1  2  2  0
  2  3  1  0
  3  4  1  0
  4  5  2  0
  5  6  1  0
  6  7  2  0
  7  8  1  0
  8  9  1  0
  9 10  2  0
 10 11  1  0
 11 12  2  0
 12 13  1  0
 13 14  2  0
 14 15  1  0
 15 16  2  0
 16 17  1  0
  8 18  2  0
  2 19  1  0
 19 20  2  0
 20 21  1  0
 21 22  2  0
 22 23  1  0
 18  4  1  0
 23 19  1  0
 17  9  1  0
 16 11  1  0
  3 24  1  0
  5 25  1  0
  7 26  1  0
 12 27  1  0
 13 28  1  0
 14 29  1  0
 15 30  1  0
 18 31  1  0
 20 32  1  0
 21 33  1  0
 22 34  1  0
M  END
>  <Energy>  (43) 
554.4942597203534

>  <compound_id>  (43) 
11118

>  <target_id>  (43) 
1

>  <reference_id>  (43) 
2

>  <inspiration_ids>  (43) 
[2, 66]

>  <energy_score>  (43) 
452.68648418367036

>  <distance_score>  (43) 
12.255624885197664

>  <path>  (43) 
/opt/xchem-fragalysis-2/maxwin/BulkDock/SCRATCH/511014/C11118-P2/C11118-P2.minimised.mol

>  <scratch_subdir>  (43) 
/opt/xchem-fragalysis-2/maxwin/BulkDock/SCRATCH/511014/C11118-P2

>  <fragmenstein_runtime>  (43) 
15.988038063049316

>  <fragmenstein_outcome>  (43) 
too moved

>  <fragmenstein_mode>  (43) 
expansion

>  <fragmenstein_error>  (43) 


$$$$
C11118-P66
     RDKit          3D

 34 37  0  0  0  0  0  0  0  0999 V2000
    2.5535  -10.6713   10.6461 O   0  0  0  0  0  0  0  0  0  0  0  0
    1.4763  -10.2996   11.0499 C   0  0  0  0  0  0  0  0  0  0  0  0
    0.1015  -11.5233   11.3622 N   0  0  0  0  0  0  0  0  0  0  0  0
   -0.0263  -13.3379   11.0477 C   0  0  0  0  0  0  0  0  0  0  0  0
    0.5441  -14.4697   11.4706 C   0  0  0  0  0  0  0  0  0  0  0  0
    0.2839  -15.8155   10.8369 N   0  0  0  0  0  0  0  0  0  0  0  0
   -0.8718  -16.2296    9.8616 C   0  0  0  0  0  0  0  0  0  0  0  0
   -2.0815  -15.5898    9.6282 C   0  0  0  0  0  0  0  0  0  0  0  0
   -3.6722  -15.9689    8.6496 C   0  0  0  0  0  0  0  0  0  0  0  0
   -4.4257  -17.0790    8.2183 N   0  0  0  0  0  0  0  0  0  0  0  0
   -6.3397  -17.3639    8.3043 C   0  0  0  0  0  0  0  0  0  0  0  0
   -6.9970  -18.7390    8.7537 C   0  0  0  0  0  0  0  0  0  0  0  0
   -6.8999  -19.2130   10.4501 C   0  0  0  0  0  0  0  0  0  0  0  0
   -6.5209  -18.0883   11.5947 C   0  0  0  0  0  0  0  0  0  0  0  0
   -6.4892  -16.6337   10.8284 C   0  0  0  0  0  0  0  0  0  0  0  0
   -6.5182  -16.0749    9.0848 C   0  0  0  0  0  0  0  0  0  0  0  0
   -5.1013  -15.0183    8.9265 O   0  0  0  0  0  0  0  0  0  0  0  0
   -1.3565  -14.2518   10.2883 C   0  0  0  0  0  0  0  0  0  0  0  0
    1.4404   -8.3337   11.1156 C   0  0  0  0  0  0  0  0  0  0  0  0
    0.7403   -6.9648   11.3613 C   0  0  0  0  0  0  0  0  0  0  0  0
    1.2875   -5.6363   11.2014 C   0  0  0  0  0  0  0  0  0  0  0  0
    2.6311   -5.6231   11.1870 C   0  0  0  0  0  0  0  0  0  0  0  0
    3.2878   -7.1626   11.2616 S   0  0  0  0  0  0  0  0  0  0  0  0
   -0.6766  -11.0409   11.7706 H   0  0  0  0  0  0  0  0  0  0  0  0
    1.0983  -14.5269   12.3862 H   0  0  0  0  0  0  0  0  0  0  0  0
   -0.4398  -16.9672    9.1803 H   0  0  0  0  0  0  0  0  0  0  0  0
   -7.9272  -19.1175    8.2946 H   0  0  0  0  0  0  0  0  0  0  0  0
   -7.6628  -19.9476   10.7756 H   0  0  0  0  0  0  0  0  0  0  0  0
   -6.3679  -18.2276   12.6382 H   0  0  0  0  0  0  0  0  0  0  0  0
   -5.9094  -15.8071   11.3821 H   0  0  0  0  0  0  0  0  0  0  0  0
   -1.6739  -14.7413   11.2468 H   0  0  0  0  0  0  0  0  0  0  0  0
   -0.2855   -6.8934   11.7273 H   0  0  0  0  0  0  0  0  0  0  0  0
    0.6912   -4.7336   11.2662 H   0  0  0  0  0  0  0  0  0  0  0  0
    3.2834   -4.7607   11.1664 H   0  0  0  0  0  0  0  0  0  0  0  0
  1  2  2  0
  2  3  1  0
  3  4  1  0
  4  5  2  0
  5  6  1  0
  6  7  2  0
  7  8  1  0
  8  9  1  0
  9 10  2  0
 10 11  1  0
 11 12  2  0
 12 13  1  0
 13 14  2  0
 14 15  1  0
 15 16  2  0
 16 17  1  0
  8 18  2  0
  2 19  1  0
 19 20  2  0
 20 21  1  0
 21 22  2  0
 22 23  1  0
 18  4  1  0
 23 19  1  0
 17  9  1  0
 16 11  1  0
  3 24  1  0
  5 25  1  0
  7 26  1  0
 12 27  1  0
 13 28  1  0
 14 29  1  0
 15 30  1  0
 18 31  1  0
 20 32  1  0
 21 33  1  0
 22 34  1  0
M  END
>  <Energy>  (44) 
1045.9906192709348

>  <compound_id>  (44) 
11118

>  <target_id>  (44) 
1

>  <reference_id>  (44) 
66

>  <inspiration_ids>  (44) 
[2, 66]

>  <energy_score>  (44) 
944.1828437342579

>  <distance_score>  (44) 
11.467427722057376

>  <path>  (44) 
/opt/xchem-fragalysis-2/maxwin/BulkDock/SCRATCH/511014/C11118-P66/C11118-P66.minimised.mol

>  <scratch_subdir>  (44) 
/opt/xchem-fragalysis-2/maxwin/BulkDock/SCRATCH/511014/C11118-P66

>  <fragmenstein_runtime>  (44) 
10.715935468673706

>  <fragmenstein_outcome>  (44) 
too moved

>  <fragmenstein_mode>  (44) 
expansion

>  <fragmenstein_error>  (44) 


$$$$
C11119-P2
     RDKit          3D

 35 38  0  0  0  0  0  0  0  0999 V2000
    2.9092   -7.9454   15.6994 O   0  0  0  0  0  0  0  0  0  0  0  0
    3.5818   -7.6051   14.6628 C   0  0  0  0  0  0  0  0  0  0  0  0
    3.9594   -8.4923   13.2147 N   0  0  0  0  0  0  0  0  0  0  0  0
    3.3544  -10.3084   12.5507 C   0  0  0  0  0  0  0  0  0  0  0  0
    3.1303   -9.8489   11.1779 C   0  0  0  0  0  0  0  0  0  0  0  0
    2.7112  -10.4209   10.1146 C   0  0  0  0  0  0  0  0  0  0  0  0
    1.3190  -10.0434   10.4469 C   0  0  0  0  0  0  0  0  0  0  0  0
    0.3625  -10.9507   10.9936 C   0  0  0  0  0  0  0  0  0  0  0  0
   -1.2735  -11.1616    9.9236 C   0  0  0  0  0  0  0  0  0  0  0  0
   -2.1969  -10.4476    9.0968 N   0  0  0  0  0  0  0  0  0  0  0  0
   -3.5930  -11.2537    8.0695 C   0  0  0  0  0  0  0  0  0  0  0  0
   -4.4669  -10.8487    6.9251 C   0  0  0  0  0  0  0  0  0  0  0  0
   -5.5908  -11.5983    6.5586 C   0  0  0  0  0  0  0  0  0  0  0  0
   -5.8438  -12.7806    7.2145 C   0  0  0  0  0  0  0  0  0  0  0  0
   -4.9195  -13.2625    8.1344 C   0  0  0  0  0  0  0  0  0  0  0  0
   -3.7903  -12.4358    8.4733 C   0  0  0  0  0  0  0  0  0  0  0  0
   -2.4395  -12.4022    9.1686 O   0  0  0  0  0  0  0  0  0  0  0  0
    1.6939  -11.0608   11.9546 C   0  0  0  0  0  0  0  0  0  0  0  0
    4.0125   -5.9685   14.7675 C   0  0  0  0  0  0  0  0  0  0  0  0
    4.0064   -5.2705   15.9806 C   0  0  0  0  0  0  0  0  0  0  0  0
    3.7806   -3.8663   15.8546 C   0  0  0  0  0  0  0  0  0  0  0  0
    3.7514   -3.4360   14.5553 C   0  0  0  0  0  0  0  0  0  0  0  0
    3.6503   -4.7379   13.4689 S   0  0  0  0  0  0  0  0  0  0  0  0
    4.4017   -7.9293   12.6147 H   0  0  0  0  0  0  0  0  0  0  0  0
    3.3721   -8.7857   11.1759 H   0  0  0  0  0  0  0  0  0  0  0  0
    3.0984  -11.4292    9.9253 H   0  0  0  0  0  0  0  0  0  0  0  0
    0.9821   -9.0802   10.0542 H   0  0  0  0  0  0  0  0  0  0  0  0
   -4.2858   -9.9006    6.4264 H   0  0  0  0  0  0  0  0  0  0  0  0
   -6.2569  -11.2383    5.7802 H   0  0  0  0  0  0  0  0  0  0  0  0
   -6.7096  -13.3686    6.9627 H   0  0  0  0  0  0  0  0  0  0  0  0
   -5.0566  -14.2563    8.5253 H   0  0  0  0  0  0  0  0  0  0  0  0
    1.9765  -11.9850   11.2680 H   0  0  0  0  0  0  0  0  0  0  0  0
    4.0242   -5.7833   16.9366 H   0  0  0  0  0  0  0  0  0  0  0  0
    3.6667   -3.1923   16.6952 H   0  0  0  0  0  0  0  0  0  0  0  0
    3.6502   -2.4201   14.1978 H   0  0  0  0  0  0  0  0  0  0  0  0
  1  2  2  0
  2  3  1  0
  3  4  1  0
  4  5  2  0
  5  6  1  0
  6  7  2  0
  7  8  1  0
  8  9  1  0
  9 10  2  0
 10 11  1  0
 11 12  2  0
 12 13  1  0
 13 14  2  0
 14 15  1  0
 15 16  2  0
 16 17  1  0
  8 18  2  0
  2 19  1  0
 19 20  2  0
 20 21  1  0
 21 22  2  0
 22 23  1  0
 18  4  1  0
 23 19  1  0
 17  9  1  0
 16 11  1  0
  3 24  1  0
  5 25  1  0
  6 26  1  0
  7 27  1  0
 12 28  1  0
 13 29  1  0
 14 30  1  0
 15 31  1  0
 18 32  1  0
 20 33  1  0
 21 34  1  0
 22 35  1  0
M  END
>  <Energy>  (45) 
1080.9221226190866

>  <compound_id>  (45) 
11119

>  <target_id>  (45) 
1

>  <reference_id>  (45) 
2

>  <inspiration_ids>  (45) 
[2, 66]

>  <energy_score>  (45) 
981.678155565648

>  <distance_score>  (45) 
11.812990175660742

>  <path>  (45) 
/opt/xchem-fragalysis-2/maxwin/BulkDock/SCRATCH/511014/C11119-P2/C11119-P2.minimised.mol

>  <scratch_subdir>  (45) 
/opt/xchem-fragalysis-2/maxwin/BulkDock/SCRATCH/511014/C11119-P2

>  <fragmenstein_runtime>  (45) 
18.332781076431274

>  <fragmenstein_outcome>  (45) 
too moved

>  <fragmenstein_mode>  (45) 
expansion

>  <fragmenstein_error>  (45) 


$$$$
C11119-P66
     RDKit          3D

 35 38  0  0  0  0  0  0  0  0999 V2000
   -0.1123   -3.2247    9.3626 O   0  0  0  0  0  0  0  0  0  0  0  0
    0.5490   -4.1804    9.6581 C   0  0  0  0  0  0  0  0  0  0  0  0
    0.2967   -5.6115    9.4657 N   0  0  0  0  0  0  0  0  0  0  0  0
   -0.8488   -6.3011    8.9574 C   0  0  0  0  0  0  0  0  0  0  0  0
   -2.0283   -5.5732    9.0720 C   0  0  0  0  0  0  0  0  0  0  0  0
   -3.1407   -6.2301    9.5204 C   0  0  0  0  0  0  0  0  0  0  0  0
   -3.0653   -7.6095    9.7059 C   0  0  0  0  0  0  0  0  0  0  0  0
   -1.9929   -8.5653    9.1586 C   0  0  0  0  0  0  0  0  0  0  0  0
   -2.3019  -10.4707    9.4764 C   0  0  0  0  0  0  0  0  0  0  0  0
   -3.2688  -11.5468    8.7838 N   0  0  0  0  0  0  0  0  0  0  0  0
   -4.8916  -11.2842    8.5617 C   0  0  0  0  0  0  0  0  0  0  0  0
   -5.8578  -11.9902    7.8286 C   0  0  0  0  0  0  0  0  0  0  0  0
   -7.1798  -11.9077    8.2971 C   0  0  0  0  0  0  0  0  0  0  0  0
   -7.5179  -11.1746    9.4566 C   0  0  0  0  0  0  0  0  0  0  0  0
   -6.5687  -10.4614   10.2218 C   0  0  0  0  0  0  0  0  0  0  0  0
   -5.2674  -10.5307    9.7455 C   0  0  0  0  0  0  0  0  0  0  0  0
   -3.8086  -10.2669   10.5627 O   0  0  0  0  0  0  0  0  0  0  0  0
   -0.8634   -7.7658    8.7846 C   0  0  0  0  0  0  0  0  0  0  0  0
    1.7930   -3.9187   10.4366 C   0  0  0  0  0  0  0  0  0  0  0  0
    2.2359   -4.4884   11.6201 C   0  0  0  0  0  0  0  0  0  0  0  0
    3.4471   -3.9145   12.1171 C   0  0  0  0  0  0  0  0  0  0  0  0
    3.9110   -2.9103   11.3019 C   0  0  0  0  0  0  0  0  0  0  0  0
    2.8642   -2.6432    9.9734 S   0  0  0  0  0  0  0  0  0  0  0  0
    1.0335   -6.1405    9.9125 H   0  0  0  0  0  0  0  0  0  0  0  0
   -2.0468   -4.4875    9.0730 H   0  0  0  0  0  0  0  0  0  0  0  0
   -4.0179   -5.6715    9.8365 H   0  0  0  0  0  0  0  0  0  0  0  0
   -3.9215   -7.9951   10.2675 H   0  0  0  0  0  0  0  0  0  0  0  0
   -5.5728  -12.6615    7.0282 H   0  0  0  0  0  0  0  0  0  0  0  0
   -7.9580  -12.4618    7.7778 H   0  0  0  0  0  0  0  0  0  0  0  0
   -8.5537  -11.1860    9.7977 H   0  0  0  0  0  0  0  0  0  0  0  0
   -6.8172   -9.9872   11.1616 H   0  0  0  0  0  0  0  0  0  0  0  0
    0.0839   -8.2255    8.5767 H   0  0  0  0  0  0  0  0  0  0  0  0
    1.6825   -5.2643   12.1263 H   0  0  0  0  0  0  0  0  0  0  0  0
    3.9374   -4.2140   13.0330 H   0  0  0  0  0  0  0  0  0  0  0  0
    4.7958   -2.3001   11.4311 H   0  0  0  0  0  0  0  0  0  0  0  0
  1  2  2  0
  2  3  1  0
  3  4  1  0
  4  5  2  0
  5  6  1  0
  6  7  2  0
  7  8  1  0
  8  9  1  0
  9 10  2  0
 10 11  1  0
 11 12  2  0
 12 13  1  0
 13 14  2  0
 14 15  1  0
 15 16  2  0
 16 17  1  0
  8 18  2  0
  2 19  1  0
 19 20  2  0
 20 21  1  0
 21 22  2  0
 22 23  1  0
 18  4  1  0
 23 19  1  0
 17  9  1  0
 16 11  1  0
  3 24  1  0
  5 25  1  0
  6 26  1  0
  7 27  1  0
 12 28  1  0
 13 29  1  0
 14 30  1  0
 15 31  1  0
 18 32  1  0
 20 33  1  0
 21 34  1  0
 22 35  1  0
M  END
>  <Energy>  (46) 
348.1077389137871

>  <compound_id>  (46) 
11119

>  <target_id>  (46) 
1

>  <reference_id>  (46) 
66

>  <inspiration_ids>  (46) 
[2, 66]

>  <energy_score>  (46) 
248.86377186035742

>  <distance_score>  (46) 
13.025948721115968

>  <path>  (46) 
/opt/xchem-fragalysis-2/maxwin/BulkDock/SCRATCH/511014/C11119-P66/C11119-P66.minimised.mol

>  <scratch_subdir>  (46) 
/opt/xchem-fragalysis-2/maxwin/BulkDock/SCRATCH/511014/C11119-P66

>  <fragmenstein_runtime>  (46) 
22.87089467048645

>  <fragmenstein_outcome>  (46) 
too moved

>  <fragmenstein_mode>  (46) 
expansion

>  <fragmenstein_error>  (46) 


$$$$
C11120-P2
     RDKit          3D

 38 42  0  0  0  0  0  0  0  0999 V2000
    4.6636  -10.9775   13.4808 O   0  0  0  0  0  0  0  0  0  0  0  0
    5.7916  -11.3542   13.3691 C   0  0  0  0  0  0  0  0  0  0  0  0
    6.4792  -12.9662   12.6259 N   0  0  0  0  0  0  0  0  0  0  0  0
    5.6457  -14.3528   11.7010 C   0  0  0  0  0  0  0  0  0  0  0  0
    6.0409  -15.0777   10.1581 C   0  0  0  0  0  0  0  0  0  0  0  0
    5.5181  -16.6943    9.6286 C   0  0  0  0  0  0  0  0  0  0  0  0
    4.0564  -16.7124    9.7340 N   0  0  0  0  0  0  0  0  0  0  0  0
    3.2249  -17.7213    9.2587 C   0  0  0  0  0  0  0  0  0  0  0  0
    3.1480  -18.9982    9.5915 N   0  0  0  0  0  0  0  0  0  0  0  0
    1.9964  -19.4736    8.9701 C   0  0  0  0  0  0  0  0  0  0  0  0
    1.3315  -20.7135    9.0270 C   0  0  0  0  0  0  0  0  0  0  0  0
    0.1536  -20.8939    8.2748 C   0  0  0  0  0  0  0  0  0  0  0  0
   -0.3373  -19.8736    7.4533 C   0  0  0  0  0  0  0  0  0  0  0  0
    0.3180  -18.6343    7.3744 C   0  0  0  0  0  0  0  0  0  0  0  0
    1.4560  -18.4821    8.1745 C   0  0  0  0  0  0  0  0  0  0  0  0
    2.2095  -17.3525    8.3717 O   0  0  0  0  0  0  0  0  0  0  0  0
    3.7165  -15.3664    9.3662 C   0  0  0  0  0  0  0  0  0  0  0  0
    4.8331  -14.2839   10.0559 C   0  0  0  0  0  0  0  0  0  0  0  0
    6.9419   -9.9946   13.8763 C   0  0  0  0  0  0  0  0  0  0  0  0
    6.8924   -8.1614   13.5897 C   0  0  0  0  0  0  0  0  0  0  0  0
    8.3567   -7.3831   14.6506 C   0  0  0  0  0  0  0  0  0  0  0  0
    9.1246   -8.8447   15.3770 C   0  0  0  0  0  0  0  0  0  0  0  0
    7.0399   -7.8932   14.7184 S   0  0  0  0  0  0  0  0  0  0  0  0
    7.3971  -12.9674   12.5985 H   0  0  0  0  0  0  0  0  0  0  0  0
    5.4147  -15.1318   12.4189 H   0  0  0  0  0  0  0  0  0  0  0  0
    6.9703  -14.7733    9.6908 H   0  0  0  0  0  0  0  0  0  0  0  0
    5.9408  -17.5493   10.1599 H   0  0  0  0  0  0  0  0  0  0  0  0
    5.8495  -16.7795    8.5853 H   0  0  0  0  0  0  0  0  0  0  0  0
    1.7103  -21.5035    9.6657 H   0  0  0  0  0  0  0  0  0  0  0  0
   -0.3863  -21.8354    8.3468 H   0  0  0  0  0  0  0  0  0  0  0  0
   -1.2562  -20.0337    6.8945 H   0  0  0  0  0  0  0  0  0  0  0  0
   -0.0624  -17.8224    6.7701 H   0  0  0  0  0  0  0  0  0  0  0  0
    3.8560  -15.5106    8.3192 H   0  0  0  0  0  0  0  0  0  0  0  0
    2.6784  -15.1130    9.5318 H   0  0  0  0  0  0  0  0  0  0  0  0
    4.6181  -13.3170    9.6710 H   0  0  0  0  0  0  0  0  0  0  0  0
    6.9442   -7.7952   12.5092 H   0  0  0  0  0  0  0  0  0  0  0  0
    9.4214   -7.3113   14.7919 H   0  0  0  0  0  0  0  0  0  0  0  0
    8.7611   -9.8738   15.5192 H   0  0  0  0  0  0  0  0  0  0  0  0
  1  2  2  0
  2  3  1  0
  3  4  1  0
  4  5  1  0
  5  6  1  0
  6  7  1  0
  7  8  1  0
  8  9  2  0
  9 10  1  0
 10 11  2  0
 11 12  1  0
 12 13  2  0
 13 14  1  0
 14 15  2  0
 15 16  1  0
  7 17  1  0
 17 18  1  0
  2 19  1  0
 19 20  2  0
 20 21  1  0
 21 22  2  0
 22 23  1  0
 18  4  1  0
 23 19  1  0
 18  5  1  0
 16  8  1  0
 15 10  1  0
  3 24  1  0
  4 25  1  0
  5 26  1  0
  6 27  1  0
  6 28  1  0
 11 29  1  0
 12 30  1  0
 13 31  1  0
 14 32  1  0
 17 33  1  0
 17 34  1  0
 18 35  1  0
 20 36  1  0
 21 37  1  0
 22 38  1  0
M  END
>  <Energy>  (47) 
782.06863492035575

>  <compound_id>  (47) 
11120

>  <target_id>  (47) 
1

>  <reference_id>  (47) 
2

>  <inspiration_ids>  (47) 
[2, 66]

>  <energy_score>  (47) 
678.674251825151

>  <distance_score>  (47) 
11.45299772298243

>  <path>  (47) 
/opt/xchem-fragalysis-2/maxwin/BulkDock/SCRATCH/511014/C11120-P2/C11120-P2.minimised.mol

>  <scratch_subdir>  (47) 
/opt/xchem-fragalysis-2/maxwin/BulkDock/SCRATCH/511014/C11120-P2

>  <fragmenstein_runtime>  (47) 
27.27736473083496

>  <fragmenstein_outcome>  (47) 
too moved

>  <fragmenstein_mode>  (47) 
expansion

>  <fragmenstein_error>  (47) 


$$$$
C11120-P66
     RDKit          3D

 38 42  0  0  0  0  0  0  0  0999 V2000
    5.2292  -19.0359    6.5697 O   0  0  0  0  0  0  0  0  0  0  0  0
    4.8670  -18.2889    7.4335 C   0  0  0  0  0  0  0  0  0  0  0  0
    3.5574  -18.1060    8.0388 N   0  0  0  0  0  0  0  0  0  0  0  0
    2.2722  -18.6980    7.7223 C   0  0  0  0  0  0  0  0  0  0  0  0
    1.9587  -19.4836    6.4591 C   0  0  0  0  0  0  0  0  0  0  0  0
    0.5527  -19.7198    5.9302 C   0  0  0  0  0  0  0  0  0  0  0  0
   -0.1415  -20.4741    6.9707 N   0  0  0  0  0  0  0  0  0  0  0  0
   -1.2231  -21.2615    6.7244 C   0  0  0  0  0  0  0  0  0  0  0  0
   -1.6772  -22.2481    7.4708 N   0  0  0  0  0  0  0  0  0  0  0  0
   -2.7695  -22.7283    6.8056 C   0  0  0  0  0  0  0  0  0  0  0  0
   -3.6630  -23.7638    7.1218 C   0  0  0  0  0  0  0  0  0  0  0  0
   -4.7059  -24.0410    6.2254 C   0  0  0  0  0  0  0  0  0  0  0  0
   -4.8527  -23.2980    5.0471 C   0  0  0  0  0  0  0  0  0  0  0  0
   -3.9690  -22.2543    4.7230 C   0  0  0  0  0  0  0  0  0  0  0  0
   -2.9470  -22.0113    5.6370 C   0  0  0  0  0  0  0  0  0  0  0  0
   -1.9640  -21.0550    5.5801 O   0  0  0  0  0  0  0  0  0  0  0  0
    0.7557  -20.8538    8.0678 C   0  0  0  0  0  0  0  0  0  0  0  0
    2.0794  -20.1986    7.7604 C   0  0  0  0  0  0  0  0  0  0  0  0
    5.9037  -17.3471    7.9917 C   0  0  0  0  0  0  0  0  0  0  0  0
    7.2244  -17.1979    7.5692 C   0  0  0  0  0  0  0  0  0  0  0  0
    7.9677  -16.1918    8.2636 C   0  0  0  0  0  0  0  0  0  0  0  0
    7.1958  -15.5717    9.2099 C   0  0  0  0  0  0  0  0  0  0  0  0
    5.6105  -16.2365    9.2649 S   0  0  0  0  0  0  0  0  0  0  0  0
    3.5975  -17.3252    8.6847 H   0  0  0  0  0  0  0  0  0  0  0  0
    1.4563  -18.0966    8.1198 H   0  0  0  0  0  0  0  0  0  0  0  0
    2.7270  -19.6120    5.7098 H   0  0  0  0  0  0  0  0  0  0  0  0
    0.6090  -20.2934    4.9979 H   0  0  0  0  0  0  0  0  0  0  0  0
    0.0491  -18.7669    5.7381 H   0  0  0  0  0  0  0  0  0  0  0  0
   -3.5404  -24.3256    8.0418 H   0  0  0  0  0  0  0  0  0  0  0  0
   -5.4000  -24.8484    6.4479 H   0  0  0  0  0  0  0  0  0  0  0  0
   -5.6646  -23.5373    4.3622 H   0  0  0  0  0  0  0  0  0  0  0  0
   -4.0679  -21.6728    3.8152 H   0  0  0  0  0  0  0  0  0  0  0  0
    0.8973  -21.9403    8.1121 H   0  0  0  0  0  0  0  0  0  0  0  0
    0.3631  -20.5037    9.0283 H   0  0  0  0  0  0  0  0  0  0  0  0
    2.9317  -20.8411    7.9302 H   0  0  0  0  0  0  0  0  0  0  0  0
    7.6341  -17.7930    6.7592 H   0  0  0  0  0  0  0  0  0  0  0  0
    8.9926  -15.9165    8.0447 H   0  0  0  0  0  0  0  0  0  0  0  0
    7.4772  -14.7393    9.8383 H   0  0  0  0  0  0  0  0  0  0  0  0
  1  2  2  0
  2  3  1  0
  3  4  1  0
  4  5  1  0
  5  6  1  0
  6  7  1  0
  7  8  1  0
  8  9  2  0
  9 10  1  0
 10 11  2  0
 11 12  1  0
 12 13  2  0
 13 14  1  0
 14 15  2  0
 15 16  1  0
  7 17  1  0
 17 18  1  0
  2 19  1  0
 19 20  2  0
 20 21  1  0
 21 22  2  0
 22 23  1  0
 18  4  1  0
 23 19  1  0
 18  5  1  0
 16  8  1  0
 15 10  1  0
  3 24  1  0
  4 25  1  0
  5 26  1  0
  6 27  1  0
  6 28  1  0
 11 29  1  0
 12 30  1  0
 13 31  1  0
 14 32  1  0
 17 33  1  0
 17 34  1  0
 18 35  1  0
 20 36  1  0
 21 37  1  0
 22 38  1  0
M  END
>  <Energy>  (48) 
-6.2069064514526664

>  <compound_id>  (48) 
11120

>  <target_id>  (48) 
1

>  <reference_id>  (48) 
66

>  <inspiration_ids>  (48) 
[2, 66]

>  <energy_score>  (48) 
-109.60128954665568

>  <distance_score>  (48) 
14.470216140411976

>  <path>  (48) 
/opt/xchem-fragalysis-2/maxwin/BulkDock/SCRATCH/511014/C11120-P66/C11120-P66.minimised.mol

>  <scratch_subdir>  (48) 
/opt/xchem-fragalysis-2/maxwin/BulkDock/SCRATCH/511014/C11120-P66

>  <fragmenstein_runtime>  (48) 
26.755630254745483

>  <fragmenstein_outcome>  (48) 
too moved

>  <fragmenstein_mode>  (48) 
expansion

>  <fragmenstein_error>  (48) 


$$$$
C11121-P2
     RDKit          3D

 40 43  0  0  0  0  0  0  0  0999 V2000
    8.7911   -6.9678   14.7839 O   0  0  0  0  0  0  0  0  0  0  0  0
    7.8917   -6.2270   15.0696 C   0  0  0  0  0  0  0  0  0  0  0  0
    6.0955   -6.8111   14.8433 N   0  0  0  0  0  0  0  0  0  0  0  0
    5.3470   -8.4304   14.0066 C   0  0  0  0  0  0  0  0  0  0  0  0
    4.4472   -7.4844   13.1103 C   0  0  0  0  0  0  0  0  0  0  0  0
    3.3801   -7.9246   11.6067 C   0  0  0  0  0  0  0  0  0  0  0  0
    2.9064   -9.7086   11.0195 C   0  0  0  0  0  0  0  0  0  0  0  0
    2.8553  -10.6472   12.0864 N   0  0  0  0  0  0  0  0  0  0  0  0
    1.2080  -11.3250   12.0045 C   0  0  0  0  0  0  0  0  0  0  0  0
    0.2514  -11.6705   11.1077 N   0  0  0  0  0  0  0  0  0  0  0  0
   -0.1967  -13.1067   11.2720 C   0  0  0  0  0  0  0  0  0  0  0  0
   -0.9274  -14.3505   10.7123 C   0  0  0  0  0  0  0  0  0  0  0  0
   -0.8344  -15.6490   10.9628 C   0  0  0  0  0  0  0  0  0  0  0  0
    0.2494  -15.8329   11.6526 C   0  0  0  0  0  0  0  0  0  0  0  0
    0.4983  -14.7496   12.5063 C   0  0  0  0  0  0  0  0  0  0  0  0
    0.1928  -13.4324   12.4769 C   0  0  0  0  0  0  0  0  0  0  0  0
    0.6491  -12.3646   13.1557 O   0  0  0  0  0  0  0  0  0  0  0  0
    4.1114  -10.0328   13.5492 C   0  0  0  0  0  0  0  0  0  0  0  0
    8.4174   -4.3663   15.5157 C   0  0  0  0  0  0  0  0  0  0  0  0
    7.8658   -3.0028   15.0355 C   0  0  0  0  0  0  0  0  0  0  0  0
    8.6898   -1.8173   15.0918 C   0  0  0  0  0  0  0  0  0  0  0  0
   10.0328   -2.0655   15.1982 C   0  0  0  0  0  0  0  0  0  0  0  0
   10.4514   -3.7252   15.0520 S   0  0  0  0  0  0  0  0  0  0  0  0
    5.4662   -6.0913   15.2146 H   0  0  0  0  0  0  0  0  0  0  0  0
    6.3938   -8.7521   13.9406 H   0  0  0  0  0  0  0  0  0  0  0  0
    4.0101   -7.0335   13.9917 H   0  0  0  0  0  0  0  0  0  0  0  0
    4.8686   -6.5658   12.7577 H   0  0  0  0  0  0  0  0  0  0  0  0
    2.5221   -7.2262   11.5055 H   0  0  0  0  0  0  0  0  0  0  0  0
    3.9634   -7.6263   10.7402 H   0  0  0  0  0  0  0  0  0  0  0  0
    3.5390  -10.1219   10.2206 H   0  0  0  0  0  0  0  0  0  0  0  0
    1.8664   -9.6731   10.6412 H   0  0  0  0  0  0  0  0  0  0  0  0
   -1.6820  -14.4394    9.9117 H   0  0  0  0  0  0  0  0  0  0  0  0
   -1.5688  -16.2859   10.5167 H   0  0  0  0  0  0  0  0  0  0  0  0
    0.7624  -16.7799   11.7436 H   0  0  0  0  0  0  0  0  0  0  0  0
    1.3895  -14.7642   12.9777 H   0  0  0  0  0  0  0  0  0  0  0  0
    3.7276  -10.4642   14.4610 H   0  0  0  0  0  0  0  0  0  0  0  0
    4.9231  -10.7678   13.3854 H   0  0  0  0  0  0  0  0  0  0  0  0
    6.8301   -2.9001   14.7198 H   0  0  0  0  0  0  0  0  0  0  0  0
    8.3094   -0.8231   14.8906 H   0  0  0  0  0  0  0  0  0  0  0  0
   10.8312   -1.3383   15.1491 H   0  0  0  0  0  0  0  0  0  0  0  0
  1  2  2  0
  2  3  1  0
  3  4  1  0
  4  5  1  0
  5  6  1  0
  6  7  1  0
  7  8  1  0
  8  9  1  0
  9 10  2  0
 10 11  1  0
 11 12  2  0
 12 13  1  0
 13 14  2  0
 14 15  1  0
 15 16  2  0
 16 17  1  0
  8 18  1  0
  2 19  1  0
 19 20  2  0
 20 21  1  0
 21 22  2  0
 22 23  1  0
 18  4  1  0
 23 19  1  0
 17  9  1  0
 16 11  1  0
  3 24  1  0
  4 25  1  0
  5 26  1  0
  5 27  1  0
  6 28  1  0
  6 29  1  0
  7 30  1  0
  7 31  1  0
 12 32  1  0
 13 33  1  0
 14 34  1  0
 15 35  1  0
 18 36  1  0
 18 37  1  0
 20 38  1  0
 21 39  1  0
 22 40  1  0
M  END
>  <Energy>  (49) 
872.8250638523441

>  <compound_id>  (49) 
11121

>  <target_id>  (49) 
1

>  <reference_id>  (49) 
2

>  <inspiration_ids>  (49) 
[2, 66]

>  <energy_score>  (49) 
825.3988913272286

>  <distance_score>  (49) 
11.011142986292263

>  <path>  (49) 
/opt/xchem-fragalysis-2/maxwin/BulkDock/SCRATCH/511014/C11121-P2/C11121-P2.minimised.mol

>  <scratch_subdir>  (49) 
/opt/xchem-fragalysis-2/maxwin/BulkDock/SCRATCH/511014/C11121-P2

>  <fragmenstein_runtime>  (49) 
22.45537495613098

>  <fragmenstein_outcome>  (49) 
too moved

>  <fragmenstein_mode>  (49) 
expansion

>  <fragmenstein_error>  (49) 


$$$$
C11121-P66
     RDKit          3D

 40 43  0  0  0  0  0  0  0  0999 V2000
    5.8717   -7.2038   13.1584 O   0  0  0  0  0  0  0  0  0  0  0  0
    6.3756   -7.9761   13.8752 C   0  0  0  0  0  0  0  0  0  0  0  0
    5.2269   -9.7573   13.8005 N   0  0  0  0  0  0  0  0  0  0  0  0
    3.5285  -10.3935   12.5594 C   0  0  0  0  0  0  0  0  0  0  0  0
    3.1383  -11.7663   11.0901 C   0  0  0  0  0  0  0  0  0  0  0  0
    1.5011  -12.8724   11.1504 C   0  0  0  0  0  0  0  0  0  0  0  0
    0.1841  -12.5461   11.6705 C   0  0  0  0  0  0  0  0  0  0  0  0
    0.0048  -11.4283   10.9170 N   0  0  0  0  0  0  0  0  0  0  0  0
   -1.4063  -11.5955    9.7291 C   0  0  0  0  0  0  0  0  0  0  0  0
   -2.5254  -10.9212    9.0741 N   0  0  0  0  0  0  0  0  0  0  0  0
   -3.8462  -11.4534    7.7581 C   0  0  0  0  0  0  0  0  0  0  0  0
   -4.8525  -10.8828    6.9122 C   0  0  0  0  0  0  0  0  0  0  0  0
   -5.9464  -11.6798    6.5352 C   0  0  0  0  0  0  0  0  0  0  0  0
   -6.0846  -12.9662    7.0403 C   0  0  0  0  0  0  0  0  0  0  0  0
   -5.0863  -13.5376    7.8269 C   0  0  0  0  0  0  0  0  0  0  0  0
   -3.9586  -12.7381    8.0728 C   0  0  0  0  0  0  0  0  0  0  0  0
   -2.6237  -12.8930    9.0516 O   0  0  0  0  0  0  0  0  0  0  0  0
    1.6898  -10.4310   11.3683 C   0  0  0  0  0  0  0  0  0  0  0  0
    8.2496   -7.0730   14.5947 C   0  0  0  0  0  0  0  0  0  0  0  0
    9.6195   -7.6008   15.2448 C   0  0  0  0  0  0  0  0  0  0  0  0
   11.1278   -6.4939   15.8273 C   0  0  0  0  0  0  0  0  0  0  0  0
   11.0805   -5.1093   15.8797 C   0  0  0  0  0  0  0  0  0  0  0  0
    9.9538   -5.1411   14.3785 S   0  0  0  0  0  0  0  0  0  0  0  0
    5.7072  -10.4659   14.3538 H   0  0  0  0  0  0  0  0  0  0  0  0
    3.4811   -9.3418   11.8949 H   0  0  0  0  0  0  0  0  0  0  0  0
    3.3260  -11.3189   10.1004 H   0  0  0  0  0  0  0  0  0  0  0  0
    3.8975  -12.5590   10.9702 H   0  0  0  0  0  0  0  0  0  0  0  0
    1.4135  -13.7258   10.5322 H   0  0  0  0  0  0  0  0  0  0  0  0
    1.4006  -13.6936   11.9408 H   0  0  0  0  0  0  0  0  0  0  0  0
    0.1446  -12.3861   12.7456 H   0  0  0  0  0  0  0  0  0  0  0  0
   -0.4144  -13.4244   11.4313 H   0  0  0  0  0  0  0  0  0  0  0  0
   -4.8952   -9.8242    6.6897 H   0  0  0  0  0  0  0  0  0  0  0  0
   -6.7543  -11.2374    5.9569 H   0  0  0  0  0  0  0  0  0  0  0  0
   -7.0152  -13.4889    6.8963 H   0  0  0  0  0  0  0  0  0  0  0  0
   -5.2176  -14.4299    8.4079 H   0  0  0  0  0  0  0  0  0  0  0  0
    1.1766   -9.4665   11.2883 H   0  0  0  0  0  0  0  0  0  0  0  0
    2.0694  -10.1984   10.3977 H   0  0  0  0  0  0  0  0  0  0  0  0
    9.7079   -8.7029   15.4352 H   0  0  0  0  0  0  0  0  0  0  0  0
   12.0655   -6.9764   16.1436 H   0  0  0  0  0  0  0  0  0  0  0  0
   11.7782   -4.3178   16.1175 H   0  0  0  0  0  0  0  0  0  0  0  0
  1  2  2  0
  2  3  1  0
  3  4  1  0
  4  5  1  0
  5  6  1  0
  6  7  1  0
  7  8  1  0
  8  9  1  0
  9 10  2  0
 10 11  1  0
 11 12  2  0
 12 13  1  0
 13 14  2  0
 14 15  1  0
 15 16  2  0
 16 17  1  0
  8 18  1  0
  2 19  1  0
 19 20  2  0
 20 21  1  0
 21 22  2  0
 22 23  1  0
 18  4  1  0
 23 19  1  0
 17  9  1  0
 16 11  1  0
  3 24  1  0
  4 25  1  0
  5 26  1  0
  5 27  1  0
  6 28  1  0
  6 29  1  0
  7 30  1  0
  7 31  1  0
 12 32  1  0
 13 33  1  0
 14 34  1  0
 15 35  1  0
 18 36  1  0
 18 37  1  0
 20 38  1  0
 21 39  1  0
 22 40  1  0
M  END
>  <Energy>  (50) 
2022.627406327995

>  <compound_id>  (50) 
11121

>  <target_id>  (50) 
1

>  <reference_id>  (50) 
66

>  <inspiration_ids>  (50) 
[2, 66]

>  <energy_score>  (50) 
1975.2012338029303

>  <distance_score>  (50) 
10.605093520145777

>  <path>  (50) 
/opt/xchem-fragalysis-2/maxwin/BulkDock/SCRATCH/511014/C11121-P66/C11121-P66.minimised.mol

>  <scratch_subdir>  (50) 
/opt/xchem-fragalysis-2/maxwin/BulkDock/SCRATCH/511014/C11121-P66

>  <fragmenstein_runtime>  (50) 
22.39495086669922

>  <fragmenstein_outcome>  (50) 
too moved

>  <fragmenstein_mode>  (50) 
expansion

>  <fragmenstein_error>  (50) 


$$$$
C11122-P2
     RDKit          3D

 41 45  0  0  0  0  0  0  0  0999 V2000
    5.1309   -7.2825   13.2921 O   0  0  0  0  0  0  0  0  0  0  0  0
    5.6810   -8.2186   13.8114 C   0  0  0  0  0  0  0  0  0  0  0  0
    4.7765   -9.9768   13.5865 N   0  0  0  0  0  0  0  0  0  0  0  0
    3.1398  -10.5498   12.4973 C   0  0  0  0  0  0  0  0  0  0  0  0
    2.7507  -11.7036   11.0050 C   0  0  0  0  0  0  0  0  0  0  0  0
    0.9711  -12.5982   11.1032 C   0  0  0  0  0  0  0  0  0  0  0  0
   -0.1614  -11.6024   11.1028 C   0  0  0  0  0  0  0  0  0  0  0  0
    0.6726  -10.5329   11.4348 C   0  0  0  0  0  0  0  0  0  0  0  0
    1.2328  -11.3900   12.4458 C   0  0  0  0  0  0  0  0  0  0  0  0
    0.2602  -13.1162   12.2995 N   0  0  0  0  0  0  0  0  0  0  0  0
   -0.9412  -14.2652   11.5118 C   0  0  0  0  0  0  0  0  0  0  0  0
   -2.4429  -14.8141   10.9624 N   0  0  0  0  0  0  0  0  0  0  0  0
   -4.0799  -14.5130   11.9543 C   0  0  0  0  0  0  0  0  0  0  0  0
   -5.3679  -15.0312   12.1861 C   0  0  0  0  0  0  0  0  0  0  0  0
   -5.7183  -15.5559   13.6058 C   0  0  0  0  0  0  0  0  0  0  0  0
   -5.2611  -15.1751   14.7878 C   0  0  0  0  0  0  0  0  0  0  0  0
   -4.2662  -14.3445   14.5558 C   0  0  0  0  0  0  0  0  0  0  0  0
   -3.8385  -14.0366   13.1907 C   0  0  0  0  0  0  0  0  0  0  0  0
   -2.6132  -14.4626   12.0117 O   0  0  0  0  0  0  0  0  0  0  0  0
    7.4286   -7.6204   14.5615 C   0  0  0  0  0  0  0  0  0  0  0  0
    8.5470   -6.1719   14.5773 C   0  0  0  0  0  0  0  0  0  0  0  0
   10.3671   -5.1843   14.5999 C   0  0  0  0  0  0  0  0  0  0  0  0
   10.9235   -6.5599   15.4012 C   0  0  0  0  0  0  0  0  0  0  0  0
    9.5114   -7.9397   15.1598 S   0  0  0  0  0  0  0  0  0  0  0  0
    5.3711  -10.6988   13.9904 H   0  0  0  0  0  0  0  0  0  0  0  0
    2.9816  -10.7788   13.5650 H   0  0  0  0  0  0  0  0  0  0  0  0
    3.4895  -12.4900   10.8038 H   0  0  0  0  0  0  0  0  0  0  0  0
    2.9055  -11.0446   10.1455 H   0  0  0  0  0  0  0  0  0  0  0  0
    1.0381  -13.6371   10.9347 H   0  0  0  0  0  0  0  0  0  0  0  0
   -0.8102  -11.5386   10.2731 H   0  0  0  0  0  0  0  0  0  0  0  0
   -0.8413  -11.4920   11.9444 H   0  0  0  0  0  0  0  0  0  0  0  0
    1.2520  -10.0150   10.6766 H   0  0  0  0  0  0  0  0  0  0  0  0
    0.3006   -9.7909   12.0311 H   0  0  0  0  0  0  0  0  0  0  0  0
    1.2218  -11.8830   13.5110 H   0  0  0  0  0  0  0  0  0  0  0  0
   -5.9370  -15.4562   11.3872 H   0  0  0  0  0  0  0  0  0  0  0  0
   -6.3449  -16.4272   13.7304 H   0  0  0  0  0  0  0  0  0  0  0  0
   -5.5478  -15.5661   15.7474 H   0  0  0  0  0  0  0  0  0  0  0  0
   -3.7096  -14.1846   15.4752 H   0  0  0  0  0  0  0  0  0  0  0  0
    8.5241   -5.1182   14.4959 H   0  0  0  0  0  0  0  0  0  0  0  0
   10.5200   -4.1240   14.8173 H   0  0  0  0  0  0  0  0  0  0  0  0
   11.8100   -6.6682   16.0361 H   0  0  0  0  0  0  0  0  0  0  0  0
  1  2  2  0
  2  3  1  0
  3  4  1  0
  4  5  1  0
  5  6  1  0
  6  7  1  0
  7  8  1  0
  8  9  1  0
  9 10  1  0
 10 11  1  0
 11 12  2  0
 12 13  1  0
 13 14  2  0
 14 15  1  0
 15 16  2  0
 16 17  1  0
 17 18  2  0
 18 19  1  0
  2 20  1  0
 20 21  2  0
 21 22  1  0
 22 23  2  0
 23 24  1  0
  9  4  1  0
 19 11  1  0
 24 20  1  0
 10  6  1  0
 18 13  1  0
  3 25  1  0
  4 26  1  0
  5 27  1  0
  5 28  1  0
  6 29  1  0
  7 30  1  0
  7 31  1  0
  8 32  1  0
  8 33  1  0
  9 34  1  0
 14 35  1  0
 15 36  1  0
 16 37  1  0
 17 38  1  0
 21 39  1  0
 22 40  1  0
 23 41  1  0
M  END
>  <Energy>  (51) 
2160.7218246575135

>  <compound_id>  (51) 
11122

>  <target_id>  (51) 
1

>  <reference_id>  (51) 
2

>  <inspiration_ids>  (51) 
[2, 66]

>  <energy_score>  (51) 
2101.6778116379464

>  <distance_score>  (51) 
9.997292753757497

>  <path>  (51) 
/opt/xchem-fragalysis-2/maxwin/BulkDock/SCRATCH/511014/C11122-P2/C11122-P2.minimised.mol

>  <scratch_subdir>  (51) 
/opt/xchem-fragalysis-2/maxwin/BulkDock/SCRATCH/511014/C11122-P2

>  <fragmenstein_runtime>  (51) 
20.07183599472046

>  <fragmenstein_outcome>  (51) 
too moved

>  <fragmenstein_mode>  (51) 
expansion

>  <fragmenstein_error>  (51) 


$$$$
C11122-P66
     RDKit          3D

 41 45  0  0  0  0  0  0  0  0999 V2000
    4.0987  -19.6790    7.3697 O   0  0  0  0  0  0  0  0  0  0  0  0
    3.8012  -18.9678    8.2839 C   0  0  0  0  0  0  0  0  0  0  0  0
    2.5491  -18.8164    8.9900 N   0  0  0  0  0  0  0  0  0  0  0  0
    1.1988  -19.4235    8.7426 C   0  0  0  0  0  0  0  0  0  0  0  0
    0.8416  -19.4714    7.2232 C   0  0  0  0  0  0  0  0  0  0  0  0
   -0.0666  -18.2199    7.0536 C   0  0  0  0  0  0  0  0  0  0  0  0
    0.7989  -17.0420    7.5400 C   0  0  0  0  0  0  0  0  0  0  0  0
    0.5136  -17.0285    9.0735 C   0  0  0  0  0  0  0  0  0  0  0  0
    0.0075  -18.4610    9.2524 C   0  0  0  0  0  0  0  0  0  0  0  0
   -0.9957  -18.4580    8.1488 N   0  0  0  0  0  0  0  0  0  0  0  0
   -2.2607  -17.9460    8.3254 C   0  0  0  0  0  0  0  0  0  0  0  0
   -2.9700  -16.7960    8.0349 N   0  0  0  0  0  0  0  0  0  0  0  0
   -4.3725  -17.0979    8.1334 C   0  0  0  0  0  0  0  0  0  0  0  0
   -6.3532  -16.9990    8.2369 C   0  0  0  0  0  0  0  0  0  0  0  0
   -7.5022  -17.8077    8.0381 C   0  0  0  0  0  0  0  0  0  0  0  0
   -7.3235  -18.9114    8.6790 C   0  0  0  0  0  0  0  0  0  0  0  0
   -6.0355  -18.5102    9.2954 C   0  0  0  0  0  0  0  0  0  0  0  0
   -4.1684  -18.2710    9.0343 C   0  0  0  0  0  0  0  0  0  0  0  0
   -3.0324  -18.9160    8.9010 O   0  0  0  0  0  0  0  0  0  0  0  0
    4.8187  -17.9684    8.7660 C   0  0  0  0  0  0  0  0  0  0  0  0
    4.6248  -16.6744    9.2412 C   0  0  0  0  0  0  0  0  0  0  0  0
    5.8330  -15.9344    9.4238 C   0  0  0  0  0  0  0  0  0  0  0  0
    6.9304  -16.6343    8.9845 C   0  0  0  0  0  0  0  0  0  0  0  0
    6.5115  -18.2334    8.5491 S   0  0  0  0  0  0  0  0  0  0  0  0
    2.6827  -18.1825    9.7656 H   0  0  0  0  0  0  0  0  0  0  0  0
    1.1647  -20.4172    9.1973 H   0  0  0  0  0  0  0  0  0  0  0  0
    0.2636  -20.3797    7.0104 H   0  0  0  0  0  0  0  0  0  0  0  0
    1.7048  -19.4490    6.5541 H   0  0  0  0  0  0  0  0  0  0  0  0
   -0.5107  -18.1345    6.0603 H   0  0  0  0  0  0  0  0  0  0  0  0
    0.6038  -16.1363    6.9900 H   0  0  0  0  0  0  0  0  0  0  0  0
    1.8610  -17.1938    7.3214 H   0  0  0  0  0  0  0  0  0  0  0  0
   -0.3079  -16.3726    9.3759 H   0  0  0  0  0  0  0  0  0  0  0  0
    1.3722  -16.7330    9.6763 H   0  0  0  0  0  0  0  0  0  0  0  0
   -0.3749  -18.7051   10.2468 H   0  0  0  0  0  0  0  0  0  0  0  0
   -6.6720  -15.9963    8.6734 H   0  0  0  0  0  0  0  0  0  0  0  0
   -8.5111  -17.7191    8.2598 H   0  0  0  0  0  0  0  0  0  0  0  0
   -8.0041  -19.7217    8.9430 H   0  0  0  0  0  0  0  0  0  0  0  0
   -6.2747  -19.0121    8.2763 H   0  0  0  0  0  0  0  0  0  0  0  0
    3.6424  -16.2466    9.3874 H   0  0  0  0  0  0  0  0  0  0  0  0
    5.8860  -14.9088    9.7714 H   0  0  0  0  0  0  0  0  0  0  0  0
    7.9575  -16.2961    8.9241 H   0  0  0  0  0  0  0  0  0  0  0  0
  1  2  2  0
  2  3  1  0
  3  4  1  0
  4  5  1  0
  5  6  1  0
  6  7  1  0
  7  8  1  0
  8  9  1  0
  9 10  1  0
 10 11  1  0
 11 12  2  0
 12 13  1  0
 13 14  2  0
 14 15  1  0
 15 16  2  0
 16 17  1  0
 17 18  2  0
 18 19  1  0
  2 20  1  0
 20 21  2  0
 21 22  1  0
 22 23  2  0
 23 24  1  0
  9  4  1  0
 19 11  1  0
 24 20  1  0
 10  6  1  0
 18 13  1  0
  3 25  1  0
  4 26  1  0
  5 27  1  0
  5 28  1  0
  6 29  1  0
  7 30  1  0
  7 31  1  0
  8 32  1  0
  8 33  1  0
  9 34  1  0
 14 35  1  0
 15 36  1  0
 16 37  1  0
 17 38  1  0
 21 39  1  0
 22 40  1  0
 23 41  1  0
M  END
>  <Energy>  (52) 
627.70329432239294

>  <compound_id>  (52) 
11122

>  <target_id>  (52) 
1

>  <reference_id>  (52) 
66

>  <inspiration_ids>  (52) 
[2, 66]

>  <energy_score>  (52) 
568.6592813027855

>  <distance_score>  (52) 
14.623090439071541

>  <path>  (52) 
/opt/xchem-fragalysis-2/maxwin/BulkDock/SCRATCH/511014/C11122-P66/C11122-P66.minimised.mol

>  <scratch_subdir>  (52) 
/opt/xchem-fragalysis-2/maxwin/BulkDock/SCRATCH/511014/C11122-P66

>  <fragmenstein_runtime>  (52) 
26.396783113479614

>  <fragmenstein_outcome>  (52) 
too moved

>  <fragmenstein_mode>  (52) 
expansion

>  <fragmenstein_error>  (52) 


$$$$
C11123-P2
     RDKit          3D

 40 43  0  0  0  0  0  0  0  0999 V2000
   -1.6458  -11.6951    0.8403 O   0  0  0  0  0  0  0  0  0  0  0  0
   -1.6467  -12.0838    1.9729 C   0  0  0  0  0  0  0  0  0  0  0  0
   -2.4116  -13.1482    2.6075 N   0  0  0  0  0  0  0  0  0  0  0  0
   -3.3576  -14.1501    2.0335 C   0  0  0  0  0  0  0  0  0  0  0  0
   -2.7803  -15.5824    1.9494 C   0  0  0  0  0  0  0  0  0  0  0  0
   -3.8071  -16.6660    1.5304 C   0  0  0  0  0  0  0  0  0  0  0  0
   -5.0179  -16.5944    2.3548 N   0  0  0  0  0  0  0  0  0  0  0  0
   -5.8282  -17.6887    2.5355 C   0  0  0  0  0  0  0  0  0  0  0  0
   -7.0931  -17.7098    2.9275 N   0  0  0  0  0  0  0  0  0  0  0  0
   -7.3660  -19.0306    3.2032 C   0  0  0  0  0  0  0  0  0  0  0  0
   -8.5115  -19.6423    3.7385 C   0  0  0  0  0  0  0  0  0  0  0  0
   -8.4570  -21.0150    4.0266 C   0  0  0  0  0  0  0  0  0  0  0  0
   -7.2960  -21.7574    3.7733 C   0  0  0  0  0  0  0  0  0  0  0  0
   -6.1493  -21.1581    3.2261 C   0  0  0  0  0  0  0  0  0  0  0  0
   -6.2369  -19.7917    2.9686 C   0  0  0  0  0  0  0  0  0  0  0  0
   -5.2564  -18.9470    2.5099 O   0  0  0  0  0  0  0  0  0  0  0  0
   -5.6413  -15.2671    2.3569 C   0  0  0  0  0  0  0  0  0  0  0  0
   -4.6579  -14.1932    2.8512 C   0  0  0  0  0  0  0  0  0  0  0  0
   -0.7812  -11.2824    2.9483 C   0  0  0  0  0  0  0  0  0  0  0  0
   -0.8446  -11.0803    4.3245 C   0  0  0  0  0  0  0  0  0  0  0  0
    0.1303  -10.1613    4.8506 C   0  0  0  0  0  0  0  0  0  0  0  0
    0.9216   -9.6375    3.8630 C   0  0  0  0  0  0  0  0  0  0  0  0
    0.5190  -10.2846    2.3324 S   0  0  0  0  0  0  0  0  0  0  0  0
   -2.0943  -13.2579    3.5717 H   0  0  0  0  0  0  0  0  0  0  0  0
   -3.5855  -13.8103    1.0159 H   0  0  0  0  0  0  0  0  0  0  0  0
   -1.9285  -15.5966    1.2594 H   0  0  0  0  0  0  0  0  0  0  0  0
   -2.3917  -15.8815    2.9255 H   0  0  0  0  0  0  0  0  0  0  0  0
   -4.0741  -16.5301    0.4751 H   0  0  0  0  0  0  0  0  0  0  0  0
   -3.3222  -17.6451    1.6218 H   0  0  0  0  0  0  0  0  0  0  0  0
   -9.4024  -19.0597    3.9542 H   0  0  0  0  0  0  0  0  0  0  0  0
   -9.3301  -21.5049    4.4535 H   0  0  0  0  0  0  0  0  0  0  0  0
   -7.2815  -22.8216    4.0032 H   0  0  0  0  0  0  0  0  0  0  0  0
   -5.2402  -21.7149    3.0352 H   0  0  0  0  0  0  0  0  0  0  0  0
   -6.5078  -15.2458    3.0203 H   0  0  0  0  0  0  0  0  0  0  0  0
   -5.9946  -15.0200    1.3481 H   0  0  0  0  0  0  0  0  0  0  0  0
   -4.4234  -14.3857    3.9057 H   0  0  0  0  0  0  0  0  0  0  0  0
   -5.1459  -13.2115    2.8188 H   0  0  0  0  0  0  0  0  0  0  0  0
   -1.6158  -11.5428    4.9221 H   0  0  0  0  0  0  0  0  0  0  0  0
    0.2077   -9.8625    5.8852 H   0  0  0  0  0  0  0  0  0  0  0  0
    1.7004   -8.8927    3.9504 H   0  0  0  0  0  0  0  0  0  0  0  0
  1  2  2  0
  2  3  1  0
  3  4  1  0
  4  5  1  0
  5  6  1  0
  6  7  1  0
  7  8  1  0
  8  9  2  0
  9 10  1  0
 10 11  2  0
 11 12  1  0
 12 13  2  0
 13 14  1  0
 14 15  2  0
 15 16  1  0
  7 17  1  0
 17 18  1  0
  2 19  1  0
 19 20  2  0
 20 21  1  0
 21 22  2  0
 22 23  1  0
 18  4  1  0
 23 19  1  0
 16  8  1  0
 15 10  1  0
  3 24  1  0
  4 25  1  0
  5 26  1  0
  5 27  1  0
  6 28  1  0
  6 29  1  0
 11 30  1  0
 12 31  1  0
 13 32  1  0
 14 33  1  0
 17 34  1  0
 17 35  1  0
 18 36  1  0
 18 37  1  0
 20 38  1  0
 21 39  1  0
 22 40  1  0
M  END
>  <Energy>  (53) 
-20.927515037895848

>  <compound_id>  (53) 
11123

>  <target_id>  (53) 
1

>  <reference_id>  (53) 
2

>  <inspiration_ids>  (53) 
[2, 66]

>  <energy_score>  (53) 
-21.58726749523848

>  <distance_score>  (53) 
15.793293119857363

>  <path>  (53) 
/opt/xchem-fragalysis-2/maxwin/BulkDock/SCRATCH/511014/C11123-P2/C11123-P2.minimised.mol

>  <scratch_subdir>  (53) 
/opt/xchem-fragalysis-2/maxwin/BulkDock/SCRATCH/511014/C11123-P2

>  <fragmenstein_runtime>  (53) 
28.763988256454468

>  <fragmenstein_outcome>  (53) 
too moved

>  <fragmenstein_mode>  (53) 
expansion

>  <fragmenstein_error>  (53) 


$$$$
C11123-P66
     RDKit          3D

 40 43  0  0  0  0  0  0  0  0999 V2000
   -1.6268   -9.1830    5.5572 O   0  0  0  0  0  0  0  0  0  0  0  0
   -0.4363   -9.0719    5.5220 C   0  0  0  0  0  0  0  0  0  0  0  0
    0.5966  -10.0599    5.2863 N   0  0  0  0  0  0  0  0  0  0  0  0
    0.5037  -11.4794    4.9215 C   0  0  0  0  0  0  0  0  0  0  0  0
    1.0898  -12.6309    5.7934 C   0  0  0  0  0  0  0  0  0  0  0  0
    1.5929  -14.1981    5.5485 C   0  0  0  0  0  0  0  0  0  0  0  0
    1.2781  -14.6306    4.1522 N   0  0  0  0  0  0  0  0  0  0  0  0
    1.1936  -16.1796    3.0218 C   0  0  0  0  0  0  0  0  0  0  0  0
    0.3189  -16.2759    1.9696 N   0  0  0  0  0  0  0  0  0  0  0  0
   -0.4277  -17.4415    2.2207 C   0  0  0  0  0  0  0  0  0  0  0  0
   -1.7135  -17.8405    1.8034 C   0  0  0  0  0  0  0  0  0  0  0  0
   -2.2884  -18.9971    2.3728 C   0  0  0  0  0  0  0  0  0  0  0  0
   -1.5837  -19.7730    3.2999 C   0  0  0  0  0  0  0  0  0  0  0  0
   -0.2829  -19.4216    3.6846 C   0  0  0  0  0  0  0  0  0  0  0  0
    0.2283  -18.2421    3.1334 C   0  0  0  0  0  0  0  0  0  0  0  0
    1.3851  -17.5879    3.4915 O   0  0  0  0  0  0  0  0  0  0  0  0
    0.4498  -13.0831    3.2360 C   0  0  0  0  0  0  0  0  0  0  0  0
    0.8315  -11.6385    3.4980 C   0  0  0  0  0  0  0  0  0  0  0  0
    0.0871   -7.6897    5.6401 C   0  0  0  0  0  0  0  0  0  0  0  0
    0.8914   -6.9645    4.7733 C   0  0  0  0  0  0  0  0  0  0  0  0
    1.0529   -5.5931    5.1688 C   0  0  0  0  0  0  0  0  0  0  0  0
    0.4128   -5.3190    6.3554 C   0  0  0  0  0  0  0  0  0  0  0  0
   -0.4695   -6.6726    6.9181 S   0  0  0  0  0  0  0  0  0  0  0  0
    1.5016   -9.6271    5.4109 H   0  0  0  0  0  0  0  0  0  0  0  0
   -0.5896  -11.6067    4.9788 H   0  0  0  0  0  0  0  0  0  0  0  0
    1.6095  -12.1484    6.5958 H   0  0  0  0  0  0  0  0  0  0  0  0
    0.1416  -12.9297    6.1580 H   0  0  0  0  0  0  0  0  0  0  0  0
    1.1928  -14.8726    6.3060 H   0  0  0  0  0  0  0  0  0  0  0  0
    2.6576  -14.3016    5.6222 H   0  0  0  0  0  0  0  0  0  0  0  0
   -2.2686  -17.2317    1.0986 H   0  0  0  0  0  0  0  0  0  0  0  0
   -3.2926  -19.2926    2.0772 H   0  0  0  0  0  0  0  0  0  0  0  0
   -2.0441  -20.6617    3.7260 H   0  0  0  0  0  0  0  0  0  0  0  0
    0.2753  -19.9806    4.4255 H   0  0  0  0  0  0  0  0  0  0  0  0
   -0.6422  -13.0632    3.3351 H   0  0  0  0  0  0  0  0  0  0  0  0
    0.5512  -13.2268    2.1360 H   0  0  0  0  0  0  0  0  0  0  0  0
    0.1900  -10.9919    2.8817 H   0  0  0  0  0  0  0  0  0  0  0  0
    1.8464  -11.3192    3.2390 H   0  0  0  0  0  0  0  0  0  0  0  0
    1.3108   -7.3840    3.8661 H   0  0  0  0  0  0  0  0  0  0  0  0
    1.6309   -4.8609    4.6172 H   0  0  0  0  0  0  0  0  0  0  0  0
    0.3839   -4.3816    6.8941 H   0  0  0  0  0  0  0  0  0  0  0  0
  1  2  2  0
  2  3  1  0
  3  4  1  0
  4  5  1  0
  5  6  1  0
  6  7  1  0
  7  8  1  0
  8  9  2  0
  9 10  1  0
 10 11  2  0
 11 12  1  0
 12 13  2  0
 13 14  1  0
 14 15  2  0
 15 16  1  0
  7 17  1  0
 17 18  1  0
  2 19  1  0
 19 20  2  0
 20 21  1  0
 21 22  2  0
 22 23  1  0
 18  4  1  0
 23 19  1  0
 16  8  1  0
 15 10  1  0
  3 24  1  0
  4 25  1  0
  5 26  1  0
  5 27  1  0
  6 28  1  0
  6 29  1  0
 11 30  1  0
 12 31  1  0
 13 32  1  0
 14 33  1  0
 17 34  1  0
 17 35  1  0
 18 36  1  0
 18 37  1  0
 20 38  1  0
 21 39  1  0
 22 40  1  0
M  END
>  <Energy>  (54) 
247.76866682963316

>  <compound_id>  (54) 
11123

>  <target_id>  (54) 
1

>  <reference_id>  (54) 
66

>  <inspiration_ids>  (54) 
[2, 66]

>  <energy_score>  (54) 
247.10891437229398

>  <distance_score>  (54) 
15.105004826547534

>  <path>  (54) 
/opt/xchem-fragalysis-2/maxwin/BulkDock/SCRATCH/511014/C11123-P66/C11123-P66.minimised.mol

>  <scratch_subdir>  (54) 
/opt/xchem-fragalysis-2/maxwin/BulkDock/SCRATCH/511014/C11123-P66

>  <fragmenstein_runtime>  (54) 
17.92534828186035

>  <fragmenstein_outcome>  (54) 
too moved

>  <fragmenstein_mode>  (54) 
expansion

>  <fragmenstein_error>  (54) 


$$$$
C11124-P2
     RDKit          3D

 35 38  0  0  0  0  0  0  0  0999 V2000
    9.3945  -11.4948   13.6437 O   0  0  0  0  0  0  0  0  0  0  0  0
    8.1520  -11.3650   13.9019 C   0  0  0  0  0  0  0  0  0  0  0  0
    6.4850  -12.3899   13.1298 N   0  0  0  0  0  0  0  0  0  0  0  0
    6.2203  -13.8406   11.6077 C   0  0  0  0  0  0  0  0  0  0  0  0
    4.6282  -13.7264   10.5405 C   0  0  0  0  0  0  0  0  0  0  0  0
    3.0839  -14.5297    9.5717 C   0  0  0  0  0  0  0  0  0  0  0  0
    1.9455  -15.9853    9.2399 C   0  0  0  0  0  0  0  0  0  0  0  0
    0.0011  -16.7274    8.7082 C   0  0  0  0  0  0  0  0  0  0  0  0
   -1.8265  -16.5928    8.7817 N   0  0  0  0  0  0  0  0  0  0  0  0
   -3.5325  -17.6911    8.7838 C   0  0  0  0  0  0  0  0  0  0  0  0
   -5.5567  -18.0570    8.9811 C   0  0  0  0  0  0  0  0  0  0  0  0
   -6.4814  -19.1127   10.3621 C   0  0  0  0  0  0  0  0  0  0  0  0
   -5.1569  -19.6383   11.5793 C   0  0  0  0  0  0  0  0  0  0  0  0
   -3.3933  -19.5849   10.7977 C   0  0  0  0  0  0  0  0  0  0  0  0
   -2.6421  -18.7115    9.3528 C   0  0  0  0  0  0  0  0  0  0  0  0
   -1.0314  -18.3053    8.4132 O   0  0  0  0  0  0  0  0  0  0  0  0
    3.7814  -16.0760    9.6581 C   0  0  0  0  0  0  0  0  0  0  0  0
    5.3776  -15.1418   10.4729 C   0  0  0  0  0  0  0  0  0  0  0  0
    7.9571  -10.0997   14.9638 C   0  0  0  0  0  0  0  0  0  0  0  0
    9.2732   -9.6346   15.5604 C   0  0  0  0  0  0  0  0  0  0  0  0
    9.4990   -8.0182   15.1979 C   0  0  0  0  0  0  0  0  0  0  0  0
    8.4440   -7.2453   14.6892 C   0  0  0  0  0  0  0  0  0  0  0  0
    6.7911   -8.1586   14.1297 S   0  0  0  0  0  0  0  0  0  0  0  0
    5.6130  -12.0278   13.5063 H   0  0  0  0  0  0  0  0  0  0  0  0
    4.1122  -12.7425   10.6903 H   0  0  0  0  0  0  0  0  0  0  0  0
    2.8362  -13.5654    9.0838 H   0  0  0  0  0  0  0  0  0  0  0  0
   -6.3364  -17.6050    8.3656 H   0  0  0  0  0  0  0  0  0  0  0  0
   -7.4477  -19.5810   10.3478 H   0  0  0  0  0  0  0  0  0  0  0  0
   -5.3023  -20.1430   12.4693 H   0  0  0  0  0  0  0  0  0  0  0  0
   -2.6406  -20.1418   11.3650 H   0  0  0  0  0  0  0  0  0  0  0  0
    4.1607  -17.0616    9.2965 H   0  0  0  0  0  0  0  0  0  0  0  0
    6.2068  -15.5755    9.8486 H   0  0  0  0  0  0  0  0  0  0  0  0
   10.0928  -10.2790   15.8486 H   0  0  0  0  0  0  0  0  0  0  0  0
   10.2814   -7.3287   15.4413 H   0  0  0  0  0  0  0  0  0  0  0  0
    8.4028   -6.1966   14.6842 H   0  0  0  0  0  0  0  0  0  0  0  0
  1  2  2  0
  2  3  1  0
  3  4  1  0
  4  5  2  0
  5  6  1  0
  6  7  2  0
  7  8  1  0
  8  9  2  0
  9 10  1  0
 10 11  2  0
 11 12  1  0
 12 13  2  0
 13 14  1  0
 14 15  2  0
 15 16  1  0
  7 17  1  0
 17 18  2  0
  2 19  1  0
 19 20  2  0
 20 21  1  0
 21 22  2  0
 22 23  1  0
 18  4  1  0
 23 19  1  0
 16  8  1  0
 15 10  1  0
  3 24  1  0
  5 25  1  0
  6 26  1  0
 11 27  1  0
 12 28  1  0
 13 29  1  0
 14 30  1  0
 17 31  1  0
 18 32  1  0
 20 33  1  0
 21 34  1  0
 22 35  1  0
M  END
>  <Energy>  (55) 
2710.7178522860072

>  <compound_id>  (55) 
11124

>  <target_id>  (55) 
1

>  <reference_id>  (55) 
2

>  <inspiration_ids>  (55) 
[2, 66]

>  <energy_score>  (55) 
2613.19467297618

>  <distance_score>  (55) 
9.349857536751252

>  <path>  (55) 
/opt/xchem-fragalysis-2/maxwin/BulkDock/SCRATCH/511014/C11124-P2/C11124-P2.minimised.mol

>  <scratch_subdir>  (55) 
/opt/xchem-fragalysis-2/maxwin/BulkDock/SCRATCH/511014/C11124-P2

>  <fragmenstein_runtime>  (55) 
13.164073944091797

>  <fragmenstein_outcome>  (55) 
too moved

>  <fragmenstein_mode>  (55) 
expansion

>  <fragmenstein_error>  (55) 


$$$$
C11124-P66
     RDKit          3D

 35 38  0  0  0  0  0  0  0  0999 V2000
    5.2885  -19.9925    8.8165 O   0  0  0  0  0  0  0  0  0  0  0  0
    4.9106  -18.8813    8.5735 C   0  0  0  0  0  0  0  0  0  0  0  0
    3.6364  -18.4057    8.0556 N   0  0  0  0  0  0  0  0  0  0  0  0
    2.4327  -19.0973    7.7713 C   0  0  0  0  0  0  0  0  0  0  0  0
    2.2390  -20.4466    8.0737 C   0  0  0  0  0  0  0  0  0  0  0  0
    1.0274  -21.1097    7.7423 C   0  0  0  0  0  0  0  0  0  0  0  0
   -0.0258  -20.4583    7.0735 C   0  0  0  0  0  0  0  0  0  0  0  0
   -1.2572  -21.1675    6.6613 C   0  0  0  0  0  0  0  0  0  0  0  0
   -2.0805  -20.9251    5.6491 N   0  0  0  0  0  0  0  0  0  0  0  0
   -2.9903  -21.9602    5.7049 C   0  0  0  0  0  0  0  0  0  0  0  0
   -4.0807  -22.2896    4.8829 C   0  0  0  0  0  0  0  0  0  0  0  0
   -4.8697  -23.4018    5.2332 C   0  0  0  0  0  0  0  0  0  0  0  0
   -4.5808  -24.1662    6.3723 C   0  0  0  0  0  0  0  0  0  0  0  0
   -3.4856  -23.8608    7.1904 C   0  0  0  0  0  0  0  0  0  0  0  0
   -2.7245  -22.7607    6.8026 C   0  0  0  0  0  0  0  0  0  0  0  0
   -1.6009  -22.2743    7.4039 O   0  0  0  0  0  0  0  0  0  0  0  0
    0.1781  -19.1012    6.7774 C   0  0  0  0  0  0  0  0  0  0  0  0
    1.3779  -18.4284    7.1345 C   0  0  0  0  0  0  0  0  0  0  0  0
    5.9177  -17.7830    8.7593 C   0  0  0  0  0  0  0  0  0  0  0  0
    7.3065  -17.8996    8.7373 C   0  0  0  0  0  0  0  0  0  0  0  0
    8.0118  -16.6730    8.9369 C   0  0  0  0  0  0  0  0  0  0  0  0
    7.1446  -15.6418    9.1838 C   0  0  0  0  0  0  0  0  0  0  0  0
    5.5035  -16.1680    9.1391 S   0  0  0  0  0  0  0  0  0  0  0  0
    3.6963  -17.4088    7.8958 H   0  0  0  0  0  0  0  0  0  0  0  0
    3.0170  -21.0204    8.5735 H   0  0  0  0  0  0  0  0  0  0  0  0
    0.9334  -22.1642    8.0011 H   0  0  0  0  0  0  0  0  0  0  0  0
   -4.3064  -21.6921    4.0070 H   0  0  0  0  0  0  0  0  0  0  0  0
   -5.7176  -23.6715    4.6063 H   0  0  0  0  0  0  0  0  0  0  0  0
   -5.2061  -25.0218    6.6203 H   0  0  0  0  0  0  0  0  0  0  0  0
   -3.2375  -24.4382    8.0728 H   0  0  0  0  0  0  0  0  0  0  0  0
   -0.6012  -18.5460    6.2566 H   0  0  0  0  0  0  0  0  0  0  0  0
    1.4721  -17.3776    6.8728 H   0  0  0  0  0  0  0  0  0  0  0  0
    7.7945  -18.8498    8.5441 H   0  0  0  0  0  0  0  0  0  0  0  0
    9.0896  -16.5623    8.9091 H   0  0  0  0  0  0  0  0  0  0  0  0
    7.3983  -14.6071    9.3696 H   0  0  0  0  0  0  0  0  0  0  0  0
  1  2  2  0
  2  3  1  0
  3  4  1  0
  4  5  2  0
  5  6  1  0
  6  7  2  0
  7  8  1  0
  8  9  2  0
  9 10  1  0
 10 11  2  0
 11 12  1  0
 12 13  2  0
 13 14  1  0
 14 15  2  0
 15 16  1  0
  7 17  1  0
 17 18  2  0
  2 19  1  0
 19 20  2  0
 20 21  1  0
 21 22  2  0
 22 23  1  0
 18  4  1  0
 23 19  1  0
 16  8  1  0
 15 10  1  0
  3 24  1  0
  5 25  1  0
  6 26  1  0
 11 27  1  0
 12 28  1  0
 13 29  1  0
 14 30  1  0
 17 31  1  0
 18 32  1  0
 20 33  1  0
 21 34  1  0
 22 35  1  0
M  END
>  <Energy>  (56) 
49.610139858603446

>  <compound_id>  (56) 
11124

>  <target_id>  (56) 
1

>  <reference_id>  (56) 
66

>  <inspiration_ids>  (56) 
[2, 66]

>  <energy_score>  (56) 
-47.913039451261426

>  <distance_score>  (56) 
14.469341700691544

>  <path>  (56) 
/opt/xchem-fragalysis-2/maxwin/BulkDock/SCRATCH/511014/C11124-P66/C11124-P66.minimised.mol

>  <scratch_subdir>  (56) 
/opt/xchem-fragalysis-2/maxwin/BulkDock/SCRATCH/511014/C11124-P66

>  <fragmenstein_runtime>  (56) 
24.35290551185608

>  <fragmenstein_outcome>  (56) 
too moved

>  <fragmenstein_mode>  (56) 
expansion

>  <fragmenstein_error>  (56) 


$$$$
C11125-P2
     RDKit          3D

 43 46  0  0  0  0  0  0  0  0999 V2000
   -5.3389  -10.8077   11.9322 O   0  0  0  0  0  0  0  0  0  0  0  0
   -5.4558  -10.7318   10.7375 C   0  0  0  0  0  0  0  0  0  0  0  0
   -5.0897   -9.3361   10.1267 C   0  0  0  0  0  0  0  0  0  0  0  0
   -3.6326   -8.8350   10.5495 C   0  0  0  0  0  0  0  0  0  0  0  0
   -2.5188   -8.6075    9.7430 C   0  0  0  0  0  0  0  0  0  0  0  0
   -1.3744   -8.0943   10.4431 C   0  0  0  0  0  0  0  0  0  0  0  0
   -1.6367   -7.9164   11.7788 C   0  0  0  0  0  0  0  0  0  0  0  0
   -3.2430   -8.3683   12.1735 S   0  0  0  0  0  0  0  0  0  0  0  0
   -5.7909  -11.7683    9.7353 N   0  0  0  0  0  0  0  0  0  0  0  0
   -5.9853  -13.2629    9.8869 C   0  0  0  0  0  0  0  0  0  0  0  0
   -6.4045  -14.2931    8.6476 C   0  0  0  0  0  0  0  0  0  0  0  0
   -7.1432  -15.9709    8.7927 N   0  0  0  0  0  0  0  0  0  0  0  0
   -7.3695  -17.5963    8.2621 C   0  0  0  0  0  0  0  0  0  0  0  0
   -8.3918  -18.1164    7.5499 N   0  0  0  0  0  0  0  0  0  0  0  0
   -8.8218  -19.4182    7.9556 C   0  0  0  0  0  0  0  0  0  0  0  0
   -9.7238  -20.3452    7.4157 C   0  0  0  0  0  0  0  0  0  0  0  0
   -9.9324  -21.5577    8.0950 C   0  0  0  0  0  0  0  0  0  0  0  0
   -9.2449  -21.8499    9.2771 C   0  0  0  0  0  0  0  0  0  0  0  0
   -8.2838  -20.9714    9.7835 C   0  0  0  0  0  0  0  0  0  0  0  0
   -8.0489  -19.8231    9.0252 C   0  0  0  0  0  0  0  0  0  0  0  0
   -7.0110  -18.8111    9.1672 O   0  0  0  0  0  0  0  0  0  0  0  0
   -4.5399  -13.4843   10.3439 C   0  0  0  0  0  0  0  0  0  0  0  0
   -3.3517  -14.1189    9.6260 C   0  0  0  0  0  0  0  0  0  0  0  0
   -3.4977  -12.6615    9.5819 C   0  0  0  0  0  0  0  0  0  0  0  0
   -5.1269   -9.3764    9.0333 H   0  0  0  0  0  0  0  0  0  0  0  0
   -5.8285   -8.6033   10.4693 H   0  0  0  0  0  0  0  0  0  0  0  0
   -2.5280   -8.7997    8.6774 H   0  0  0  0  0  0  0  0  0  0  0  0
   -0.4209   -7.8647    9.9840 H   0  0  0  0  0  0  0  0  0  0  0  0
   -0.9737   -7.5355   12.5424 H   0  0  0  0  0  0  0  0  0  0  0  0
   -5.7216  -11.3689    8.8100 H   0  0  0  0  0  0  0  0  0  0  0  0
   -6.6516  -13.3374   10.7355 H   0  0  0  0  0  0  0  0  0  0  0  0
   -7.1947  -13.7425    8.1237 H   0  0  0  0  0  0  0  0  0  0  0  0
   -5.5395  -14.2408    7.9781 H   0  0  0  0  0  0  0  0  0  0  0  0
   -7.3907  -15.8022    7.8348 H   0  0  0  0  0  0  0  0  0  0  0  0
  -10.2307  -20.1312    6.4812 H   0  0  0  0  0  0  0  0  0  0  0  0
  -10.6355  -22.2822    7.6899 H   0  0  0  0  0  0  0  0  0  0  0  0
   -9.4280  -22.7878    9.7970 H   0  0  0  0  0  0  0  0  0  0  0  0
   -7.7024  -21.1874   10.6720 H   0  0  0  0  0  0  0  0  0  0  0  0
   -4.4998  -13.4867   11.4307 H   0  0  0  0  0  0  0  0  0  0  0  0
   -3.5163  -14.6862    8.7190 H   0  0  0  0  0  0  0  0  0  0  0  0
   -2.5606  -14.5266   10.2502 H   0  0  0  0  0  0  0  0  0  0  0  0
   -2.7930  -12.0434   10.1115 H   0  0  0  0  0  0  0  0  0  0  0  0
   -3.7672  -12.2404    8.6210 H   0  0  0  0  0  0  0  0  0  0  0  0
  1  2  2  0
  2  3  1  0
  3  4  1  0
  4  5  2  0
  5  6  1  0
  6  7  2  0
  7  8  1  0
  2  9  1  0
  9 10  1  0
 10 11  1  0
 11 12  1  0
 12 13  1  0
 13 14  2  0
 14 15  1  0
 15 16  2  0
 16 17  1  0
 17 18  2  0
 18 19  1  0
 19 20  2  0
 20 21  1  0
 10 22  1  0
 22 23  1  0
 23 24  1  0
  8  4  1  0
 21 13  1  0
 24 22  1  0
 20 15  1  0
  3 25  1  0
  3 26  1  0
  5 27  1  0
  6 28  1  0
  7 29  1  0
  9 30  1  0
 10 31  1  0
 11 32  1  0
 11 33  1  0
 12 34  1  0
 16 35  1  0
 17 36  1  0
 18 37  1  0
 19 38  1  0
 22 39  1  0
 23 40  1  0
 23 41  1  0
 24 42  1  0
 24 43  1  0
M  END
>  <Energy>  (57) 
265.04833492429492

>  <compound_id>  (57) 
11125

>  <target_id>  (57) 
1

>  <reference_id>  (57) 
2

>  <inspiration_ids>  (57) 
[2, 66]

>  <energy_score>  (57) 
207.4594701340069

>  <distance_score>  (57) 
13.785233131907772

>  <path>  (57) 
/opt/xchem-fragalysis-2/maxwin/BulkDock/SCRATCH/511014/C11125-P2/C11125-P2.minimised.mol

>  <scratch_subdir>  (57) 
/opt/xchem-fragalysis-2/maxwin/BulkDock/SCRATCH/511014/C11125-P2

>  <fragmenstein_runtime>  (57) 
31.51225209236145

>  <fragmenstein_outcome>  (57) 
too moved

>  <fragmenstein_mode>  (57) 
expansion

>  <fragmenstein_error>  (57) 


$$$$
C11125-P66
     RDKit          3D

 43 46  0  0  0  0  0  0  0  0999 V2000
    0.6128  -10.1264   10.5910 O   0  0  0  0  0  0  0  0  0  0  0  0
   -0.1139  -10.6928   11.3670 C   0  0  0  0  0  0  0  0  0  0  0  0
   -1.1246   -9.6926   12.0962 C   0  0  0  0  0  0  0  0  0  0  0  0
   -0.6649   -8.1699   12.0897 C   0  0  0  0  0  0  0  0  0  0  0  0
    0.0472   -7.4328   11.1436 C   0  0  0  0  0  0  0  0  0  0  0  0
    0.5019   -6.1602   11.6152 C   0  0  0  0  0  0  0  0  0  0  0  0
    0.0110   -5.8830   12.8666 C   0  0  0  0  0  0  0  0  0  0  0  0
   -1.0512   -7.1116   13.4139 S   0  0  0  0  0  0  0  0  0  0  0  0
   -0.2799  -12.1747   11.6629 N   0  0  0  0  0  0  0  0  0  0  0  0
    0.3810  -13.4917   10.9520 C   0  0  0  0  0  0  0  0  0  0  0  0
   -0.7546  -15.0940   10.3680 C   0  0  0  0  0  0  0  0  0  0  0  0
   -2.1998  -15.7476    9.2497 N   0  0  0  0  0  0  0  0  0  0  0  0
   -3.3341  -16.9496    8.6671 C   0  0  0  0  0  0  0  0  0  0  0  0
   -4.5653  -16.7323    8.0834 N   0  0  0  0  0  0  0  0  0  0  0  0
   -6.3162  -17.4867    8.3039 C   0  0  0  0  0  0  0  0  0  0  0  0
   -7.6499  -18.0344    7.8158 C   0  0  0  0  0  0  0  0  0  0  0  0
   -8.7293  -19.4452    8.0147 C   0  0  0  0  0  0  0  0  0  0  0  0
   -8.5341  -20.1838    9.1809 C   0  0  0  0  0  0  0  0  0  0  0  0
   -7.2712  -19.5164    9.8537 C   0  0  0  0  0  0  0  0  0  0  0  0
   -6.0048  -18.3430    9.2851 C   0  0  0  0  0  0  0  0  0  0  0  0
   -4.0889  -18.4260    9.1485 O   0  0  0  0  0  0  0  0  0  0  0  0
    2.0872  -12.6551   10.7025 C   0  0  0  0  0  0  0  0  0  0  0  0
    3.1969  -11.8918    9.7409 C   0  0  0  0  0  0  0  0  0  0  0  0
    3.5597  -13.2187   10.1082 C   0  0  0  0  0  0  0  0  0  0  0  0
   -1.4153  -10.0373   13.0893 H   0  0  0  0  0  0  0  0  0  0  0  0
   -2.0394   -9.7117   11.4888 H   0  0  0  0  0  0  0  0  0  0  0  0
    0.3286   -7.8339   10.1790 H   0  0  0  0  0  0  0  0  0  0  0  0
    1.1441   -5.4933   11.0541 H   0  0  0  0  0  0  0  0  0  0  0  0
    0.1712   -4.9949   13.4614 H   0  0  0  0  0  0  0  0  0  0  0  0
   -0.9280  -12.2927   12.4406 H   0  0  0  0  0  0  0  0  0  0  0  0
    0.6652  -14.0155   11.8789 H   0  0  0  0  0  0  0  0  0  0  0  0
   -1.3491  -15.1240   11.2556 H   0  0  0  0  0  0  0  0  0  0  0  0
   -0.0521  -15.9343   10.3341 H   0  0  0  0  0  0  0  0  0  0  0  0
   -2.6648  -14.8829    8.9767 H   0  0  0  0  0  0  0  0  0  0  0  0
   -8.1990  -17.3685    8.3993 H   0  0  0  0  0  0  0  0  0  0  0  0
   -9.4475  -19.7350    7.2592 H   0  0  0  0  0  0  0  0  0  0  0  0
   -9.0931  -20.9845    9.6168 H   0  0  0  0  0  0  0  0  0  0  0  0
   -7.2217  -19.4960    8.7919 H   0  0  0  0  0  0  0  0  0  0  0  0
    1.9671  -11.7552   11.3165 H   0  0  0  0  0  0  0  0  0  0  0  0
    3.5647  -10.9930   10.2305 H   0  0  0  0  0  0  0  0  0  0  0  0
    3.2424  -11.7425    8.6711 H   0  0  0  0  0  0  0  0  0  0  0  0
    4.4129  -13.3167   10.7488 H   0  0  0  0  0  0  0  0  0  0  0  0
    3.6218  -13.9896    9.3476 H   0  0  0  0  0  0  0  0  0  0  0  0
  1  2  2  0
  2  3  1  0
  3  4  1  0
  4  5  2  0
  5  6  1  0
  6  7  2  0
  7  8  1  0
  2  9  1  0
  9 10  1  0
 10 11  1  0
 11 12  1  0
 12 13  1  0
 13 14  2  0
 14 15  1  0
 15 16  2  0
 16 17  1  0
 17 18  2  0
 18 19  1  0
 19 20  2  0
 20 21  1  0
 10 22  1  0
 22 23  1  0
 23 24  1  0
  8  4  1  0
 21 13  1  0
 24 22  1  0
 20 15  1  0
  3 25  1  0
  3 26  1  0
  5 27  1  0
  6 28  1  0
  7 29  1  0
  9 30  1  0
 10 31  1  0
 11 32  1  0
 11 33  1  0
 12 34  1  0
 16 35  1  0
 17 36  1  0
 18 37  1  0
 19 38  1  0
 22 39  1  0
 23 40  1  0
 23 41  1  0
 24 42  1  0
 24 43  1  0
M  END
>  <Energy>  (58) 
1050.0177501284434

>  <compound_id>  (58) 
11125

>  <target_id>  (58) 
1

>  <reference_id>  (58) 
66

>  <inspiration_ids>  (58) 
[2, 66]

>  <energy_score>  (58) 
992.4288853381582

>  <distance_score>  (58) 
12.041848816543828

>  <path>  (58) 
/opt/xchem-fragalysis-2/maxwin/BulkDock/SCRATCH/511014/C11125-P66/C11125-P66.minimised.mol

>  <scratch_subdir>  (58) 
/opt/xchem-fragalysis-2/maxwin/BulkDock/SCRATCH/511014/C11125-P66

>  <fragmenstein_runtime>  (58) 
26.198744773864746

>  <fragmenstein_outcome>  (58) 
too moved

>  <fragmenstein_mode>  (58) 
expansion

>  <fragmenstein_error>  (58) 


$$$$
C11126-P2
     RDKit          3D

 41 44  0  0  0  0  0  0  0  0999 V2000
    1.9580  -10.7628   11.8874 O   0  0  0  0  0  0  0  0  0  0  0  0
    2.3578  -10.9566   13.1043 C   0  0  0  0  0  0  0  0  0  0  0  0
    1.2879  -12.6171   13.9234 C   0  0  0  0  0  0  0  0  0  0  0  0
   -0.3313  -13.9140   13.9947 C   0  0  0  0  0  0  0  0  0  0  0  0
   -1.4995  -14.4008   15.6413 C   0  0  0  0  0  0  0  0  0  0  0  0
   -1.4298  -13.9058   17.0143 C   0  0  0  0  0  0  0  0  0  0  0  0
   -2.4375  -14.0209   18.0606 C   0  0  0  0  0  0  0  0  0  0  0  0
   -3.3901  -15.0075   17.9433 C   0  0  0  0  0  0  0  0  0  0  0  0
   -4.3180  -15.4752   18.8261 O   0  0  0  0  0  0  0  0  0  0  0  0
   -4.8611  -16.5504   18.1811 C   0  0  0  0  0  0  0  0  0  0  0  0
   -4.3797  -16.7941   16.9846 N   0  0  0  0  0  0  0  0  0  0  0  0
   -3.4769  -15.7679   16.8167 C   0  0  0  0  0  0  0  0  0  0  0  0
   -2.6424  -15.3655   15.6952 C   0  0  0  0  0  0  0  0  0  0  0  0
    3.5795   -9.6540   13.9700 N   0  0  0  0  0  0  0  0  0  0  0  0
    4.2329   -7.9629   13.3887 C   0  0  0  0  0  0  0  0  0  0  0  0
    4.0315   -6.3355   14.4031 C   0  0  0  0  0  0  0  0  0  0  0  0
    3.7241   -5.9161   15.7111 C   0  0  0  0  0  0  0  0  0  0  0  0
    3.6226   -4.5027   15.9107 C   0  0  0  0  0  0  0  0  0  0  0  0
    3.7033   -3.7578   14.7658 C   0  0  0  0  0  0  0  0  0  0  0  0
    3.6917   -4.7016   13.3456 S   0  0  0  0  0  0  0  0  0  0  0  0
    5.3745   -9.5722   14.0139 C   0  0  0  0  0  0  0  0  0  0  0  0
    6.3630   -7.9398   13.1571 C   0  0  0  0  0  0  0  0  0  0  0  0
    6.4257   -7.9630   14.4568 C   0  0  0  0  0  0  0  0  0  0  0  0
    0.5267  -12.2395   13.2168 H   0  0  0  0  0  0  0  0  0  0  0  0
    1.5779  -12.4906   14.9557 H   0  0  0  0  0  0  0  0  0  0  0  0
   -0.1827  -14.6502   13.2043 H   0  0  0  0  0  0  0  0  0  0  0  0
   -0.9232  -13.1274   13.6378 H   0  0  0  0  0  0  0  0  0  0  0  0
   -0.5551  -13.3839   17.3822 H   0  0  0  0  0  0  0  0  0  0  0  0
   -2.3621  -13.4313   18.9667 H   0  0  0  0  0  0  0  0  0  0  0  0
   -5.6266  -17.0919   18.7173 H   0  0  0  0  0  0  0  0  0  0  0  0
   -2.8647  -16.1667   15.0148 H   0  0  0  0  0  0  0  0  0  0  0  0
    3.6608   -8.0653   12.4575 H   0  0  0  0  0  0  0  0  0  0  0  0
    4.2675   -7.1681   12.5839 H   0  0  0  0  0  0  0  0  0  0  0  0
    3.5542   -6.5823   16.5420 H   0  0  0  0  0  0  0  0  0  0  0  0
    3.4537   -4.0519   16.8815 H   0  0  0  0  0  0  0  0  0  0  0  0
    3.6497   -2.6810   14.6802 H   0  0  0  0  0  0  0  0  0  0  0  0
    5.7984  -10.5691   13.8043 H   0  0  0  0  0  0  0  0  0  0  0  0
    7.2637   -8.0389   12.5563 H   0  0  0  0  0  0  0  0  0  0  0  0
    5.9872   -7.0631   12.6339 H   0  0  0  0  0  0  0  0  0  0  0  0
    6.2835   -7.0199   15.0140 H   0  0  0  0  0  0  0  0  0  0  0  0
    7.4438   -7.9409   14.6977 H   0  0  0  0  0  0  0  0  0  0  0  0
  1  2  2  0
  2  3  1  0
  3  4  1  0
  4  5  1  0
  5  6  2  0
  6  7  1  0
  7  8  2  0
  8  9  1  0
  9 10  1  0
 10 11  2  0
 11 12  1  0
 12 13  2  0
  2 14  1  0
 14 15  1  0
 15 16  1  0
 16 17  2  0
 17 18  1  0
 18 19  2  0
 19 20  1  0
 14 21  1  0
 21 22  1  0
 22 23  1  0
 13  5  1  0
 20 16  1  0
 23 21  1  0
 12  8  1  0
  3 24  1  0
  3 25  1  0
  4 26  1  0
  4 27  1  0
  6 28  1  0
  7 29  1  0
 10 30  1  0
 13 31  1  0
 15 32  1  0
 15 33  1  0
 17 34  1  0
 18 35  1  0
 19 36  1  0
 21 37  1  0
 22 38  1  0
 22 39  1  0
 23 40  1  0
 23 41  1  0
M  END
>  <Energy>  (59) 
1014.6924364440292

>  <compound_id>  (59) 
11126

>  <target_id>  (59) 
1

>  <reference_id>  (59) 
2

>  <inspiration_ids>  (59) 
[2, 66]

>  <energy_score>  (59) 
930.3134137361931

>  <distance_score>  (59) 
12.408554236275364

>  <path>  (59) 
/opt/xchem-fragalysis-2/maxwin/BulkDock/SCRATCH/511014/C11126-P2/C11126-P2.minimised.mol

>  <scratch_subdir>  (59) 
/opt/xchem-fragalysis-2/maxwin/BulkDock/SCRATCH/511014/C11126-P2

>  <fragmenstein_runtime>  (59) 
21.297674894332886

>  <fragmenstein_outcome>  (59) 
too moved

>  <fragmenstein_mode>  (59) 
expansion

>  <fragmenstein_error>  (59) 


$$$$
C11126-P66
     RDKit          3D

 41 44  0  0  0  0  0  0  0  0999 V2000
   -0.0386   -5.4815   12.8337 O   0  0  0  0  0  0  0  0  0  0  0  0
   -0.5923   -5.8068   13.8646 C   0  0  0  0  0  0  0  0  0  0  0  0
   -0.8218   -7.5778   13.9141 C   0  0  0  0  0  0  0  0  0  0  0  0
   -1.9556   -9.2105   14.0830 C   0  0  0  0  0  0  0  0  0  0  0  0
   -3.8039   -9.3651   14.6615 C   0  0  0  0  0  0  0  0  0  0  0  0
   -4.2939   -9.2495   15.9987 C   0  0  0  0  0  0  0  0  0  0  0  0
   -5.6733   -9.5624   16.3362 C   0  0  0  0  0  0  0  0  0  0  0  0
   -6.5590  -10.0162   15.3323 C   0  0  0  0  0  0  0  0  0  0  0  0
   -7.8158  -10.5605   15.4503 O   0  0  0  0  0  0  0  0  0  0  0  0
   -8.1655  -10.8791   14.1631 C   0  0  0  0  0  0  0  0  0  0  0  0
   -7.2779  -10.5657   13.2453 N   0  0  0  0  0  0  0  0  0  0  0  0
   -6.2407  -10.0559   13.9928 C   0  0  0  0  0  0  0  0  0  0  0  0
   -4.9367   -9.6728   13.6529 C   0  0  0  0  0  0  0  0  0  0  0  0
   -0.9649   -5.0144   15.0157 N   0  0  0  0  0  0  0  0  0  0  0  0
   -0.8771   -3.3990   15.2728 C   0  0  0  0  0  0  0  0  0  0  0  0
    0.5135   -2.7123   14.9796 C   0  0  0  0  0  0  0  0  0  0  0  0
    1.3075   -2.7466   13.8395 C   0  0  0  0  0  0  0  0  0  0  0  0
    2.5863   -2.1252   14.0119 C   0  0  0  0  0  0  0  0  0  0  0  0
    2.7228   -1.5738   15.2631 C   0  0  0  0  0  0  0  0  0  0  0  0
    1.3051   -1.7726   16.2048 S   0  0  0  0  0  0  0  0  0  0  0  0
    0.2336   -4.9951   16.1335 C   0  0  0  0  0  0  0  0  0  0  0  0
    1.6959   -5.2635   15.9490 C   0  0  0  0  0  0  0  0  0  0  0  0
    0.8571   -6.2322   16.7299 C   0  0  0  0  0  0  0  0  0  0  0  0
   -0.3088   -7.7468   12.9947 H   0  0  0  0  0  0  0  0  0  0  0  0
   -0.1713   -7.6317   14.7833 H   0  0  0  0  0  0  0  0  0  0  0  0
   -1.4416   -9.7606   14.8325 H   0  0  0  0  0  0  0  0  0  0  0  0
   -1.5742   -9.9002   13.3569 H   0  0  0  0  0  0  0  0  0  0  0  0
   -3.6267   -9.0599   16.8370 H   0  0  0  0  0  0  0  0  0  0  0  0
   -5.9872   -9.5634   17.3758 H   0  0  0  0  0  0  0  0  0  0  0  0
   -9.1325  -11.3430   14.0294 H   0  0  0  0  0  0  0  0  0  0  0  0
   -4.7487   -9.7171   12.5803 H   0  0  0  0  0  0  0  0  0  0  0  0
   -1.5520   -3.0108   14.4972 H   0  0  0  0  0  0  0  0  0  0  0  0
   -1.3387   -3.1337   16.2332 H   0  0  0  0  0  0  0  0  0  0  0  0
    1.0081   -3.2500   12.9270 H   0  0  0  0  0  0  0  0  0  0  0  0
    3.3565   -2.0880   13.2502 H   0  0  0  0  0  0  0  0  0  0  0  0
    3.5733   -1.0388   15.6628 H   0  0  0  0  0  0  0  0  0  0  0  0
   -0.0827   -4.4206   17.0177 H   0  0  0  0  0  0  0  0  0  0  0  0
    2.0272   -5.4092   14.9365 H   0  0  0  0  0  0  0  0  0  0  0  0
    2.4070   -4.6707   16.5178 H   0  0  0  0  0  0  0  0  0  0  0  0
    0.6464   -7.2230   16.3816 H   0  0  0  0  0  0  0  0  0  0  0  0
    1.0012   -6.2482   17.8099 H   0  0  0  0  0  0  0  0  0  0  0  0
  1  2  2  0
  2  3  1  0
  3  4  1  0
  4  5  1  0
  5  6  2  0
  6  7  1  0
  7  8  2  0
  8  9  1  0
  9 10  1  0
 10 11  2  0
 11 12  1  0
 12 13  2  0
  2 14  1  0
 14 15  1  0
 15 16  1  0
 16 17  2  0
 17 18  1  0
 18 19  2  0
 19 20  1  0
 14 21  1  0
 21 22  1  0
 22 23  1  0
 13  5  1  0
 20 16  1  0
 23 21  1  0
 12  8  1  0
  3 24  1  0
  3 25  1  0
  4 26  1  0
  4 27  1  0
  6 28  1  0
  7 29  1  0
 10 30  1  0
 13 31  1  0
 15 32  1  0
 15 33  1  0
 17 34  1  0
 18 35  1  0
 19 36  1  0
 21 37  1  0
 22 38  1  0
 22 39  1  0
 23 40  1  0
 23 41  1  0
M  END
>  <Energy>  (60) 
305.96119943746282

>  <compound_id>  (60) 
11126

>  <target_id>  (60) 
1

>  <reference_id>  (60) 
66

>  <inspiration_ids>  (60) 
[2, 66]

>  <energy_score>  (60) 
221.58217672963718

>  <distance_score>  (60) 
13.759748123923409

>  <path>  (60) 
/opt/xchem-fragalysis-2/maxwin/BulkDock/SCRATCH/511014/C11126-P66/C11126-P66.minimised.mol

>  <scratch_subdir>  (60) 
/opt/xchem-fragalysis-2/maxwin/BulkDock/SCRATCH/511014/C11126-P66

>  <fragmenstein_runtime>  (60) 
14.879186630249023

>  <fragmenstein_outcome>  (60) 
too moved

>  <fragmenstein_mode>  (60) 
expansion

>  <fragmenstein_error>  (60) 


$$$$
C11127-P2
     RDKit          3D

 43 46  0  0  0  0  0  0  0  0999 V2000
    0.5156   -8.6858    9.6775 O   0  0  0  0  0  0  0  0  0  0  0  0
    1.2039   -8.9026   10.6822 C   0  0  0  0  0  0  0  0  0  0  0  0
    1.2666  -10.5903   11.5019 N   0  0  0  0  0  0  0  0  0  0  0  0
    0.3004  -12.2057   11.1609 C   0  0  0  0  0  0  0  0  0  0  0  0
   -0.5205  -14.1178   11.2303 C   0  0  0  0  0  0  0  0  0  0  0  0
   -1.0166  -15.8296   10.4040 N   0  0  0  0  0  0  0  0  0  0  0  0
   -2.4095  -16.8309    9.4453 C   0  0  0  0  0  0  0  0  0  0  0  0
   -3.7931  -18.2924    9.1283 C   0  0  0  0  0  0  0  0  0  0  0  0
   -5.5533  -17.9257    8.8781 N   0  0  0  0  0  0  0  0  0  0  0  0
   -6.7884  -19.0130    9.5423 C   0  0  0  0  0  0  0  0  0  0  0  0
   -8.0264  -19.6833    8.9979 C   0  0  0  0  0  0  0  0  0  0  0  0
   -8.7287  -20.6952    9.6522 C   0  0  0  0  0  0  0  0  0  0  0  0
   -8.2932  -21.1083   10.8847 C   0  0  0  0  0  0  0  0  0  0  0  0
   -7.0817  -20.6406   11.4447 C   0  0  0  0  0  0  0  0  0  0  0  0
   -6.1410  -19.7716   10.7276 C   0  0  0  0  0  0  0  0  0  0  0  0
   -4.2490  -19.8688   10.0789 O   0  0  0  0  0  0  0  0  0  0  0  0
    0.4548  -16.5083   10.1876 C   0  0  0  0  0  0  0  0  0  0  0  0
    1.6586  -16.1106    9.3399 C   0  0  0  0  0  0  0  0  0  0  0  0
    0.8538  -17.2463    8.8868 C   0  0  0  0  0  0  0  0  0  0  0  0
    1.9546   -7.2995   11.2632 C   0  0  0  0  0  0  0  0  0  0  0  0
    1.2491   -6.0705   11.0786 C   0  0  0  0  0  0  0  0  0  0  0  0
    1.8654   -4.8278   11.5005 C   0  0  0  0  0  0  0  0  0  0  0  0
    3.1575   -4.9145   11.9546 C   0  0  0  0  0  0  0  0  0  0  0  0
    3.8381   -6.5082   11.8889 S   0  0  0  0  0  0  0  0  0  0  0  0
    1.9482  -10.5663   12.2464 H   0  0  0  0  0  0  0  0  0  0  0  0
   -0.3816  -11.5694   10.6779 H   0  0  0  0  0  0  0  0  0  0  0  0
    1.2755  -12.5863   10.9058 H   0  0  0  0  0  0  0  0  0  0  0  0
    0.4571  -14.5406   11.3987 H   0  0  0  0  0  0  0  0  0  0  0  0
   -1.0752  -13.8396   10.3782 H   0  0  0  0  0  0  0  0  0  0  0  0
   -2.9428  -15.9548    9.1009 H   0  0  0  0  0  0  0  0  0  0  0  0
   -1.8074  -17.0986    8.5656 H   0  0  0  0  0  0  0  0  0  0  0  0
   -8.5323  -19.2680    8.1197 H   0  0  0  0  0  0  0  0  0  0  0  0
   -9.6270  -21.1069    9.2075 H   0  0  0  0  0  0  0  0  0  0  0  0
   -8.8341  -21.8959   11.4052 H   0  0  0  0  0  0  0  0  0  0  0  0
   -6.7332  -21.2799   12.2450 H   0  0  0  0  0  0  0  0  0  0  0  0
    0.7592  -16.9587   11.1377 H   0  0  0  0  0  0  0  0  0  0  0  0
    1.7245  -15.3870    8.5500 H   0  0  0  0  0  0  0  0  0  0  0  0
    2.6415  -16.3613    9.7278 H   0  0  0  0  0  0  0  0  0  0  0  0
    0.2644  -17.1248    7.9890 H   0  0  0  0  0  0  0  0  0  0  0  0
    1.3005  -18.2324    8.9725 H   0  0  0  0  0  0  0  0  0  0  0  0
    0.2532   -6.0917   10.6508 H   0  0  0  0  0  0  0  0  0  0  0  0
    1.3511   -3.8764   11.4256 H   0  0  0  0  0  0  0  0  0  0  0  0
    3.7938   -4.1056   12.2869 H   0  0  0  0  0  0  0  0  0  0  0  0
  1  2  2  0
  2  3  1  0
  3  4  1  0
  4  5  1  0
  5  6  1  0
  6  7  1  0
  7  8  1  0
  8  9  2  0
  9 10  1  0
 10 11  2  0
 11 12  1  0
 12 13  2  0
 13 14  1  0
 14 15  2  0
 15 16  1  0
  6 17  1  0
 17 18  1  0
 18 19  1  0
  2 20  1  0
 20 21  2  0
 21 22  1  0
 22 23  2  0
 23 24  1  0
 16  8  1  0
 19 17  1  0
 24 20  1  0
 15 10  1  0
  3 25  1  0
  4 26  1  0
  4 27  1  0
  5 28  1  0
  5 29  1  0
  7 30  1  0
  7 31  1  0
 11 32  1  0
 12 33  1  0
 13 34  1  0
 14 35  1  0
 17 36  1  0
 18 37  1  0
 18 38  1  0
 19 39  1  0
 19 40  1  0
 21 41  1  0
 22 42  1  0
 23 43  1  0
M  END
>  <Energy>  (61) 
1170.7400878314531

>  <compound_id>  (61) 
11127

>  <target_id>  (61) 
1

>  <reference_id>  (61) 
2

>  <inspiration_ids>  (61) 
[2, 66]

>  <energy_score>  (61) 
1070.2301723459252

>  <distance_score>  (61) 
10.59473833243655

>  <path>  (61) 
/opt/xchem-fragalysis-2/maxwin/BulkDock/SCRATCH/511014/C11127-P2/C11127-P2.minimised.mol

>  <scratch_subdir>  (61) 
/opt/xchem-fragalysis-2/maxwin/BulkDock/SCRATCH/511014/C11127-P2

>  <fragmenstein_runtime>  (61) 
14.281054019927979

>  <fragmenstein_outcome>  (61) 
too moved

>  <fragmenstein_mode>  (61) 
expansion

>  <fragmenstein_error>  (61) 


$$$$
C11127-P66
     RDKit          3D

 43 46  0  0  0  0  0  0  0  0999 V2000
    2.8043  -10.3044   10.6879 O   0  0  0  0  0  0  0  0  0  0  0  0
    1.6211  -10.1631   10.8596 C   0  0  0  0  0  0  0  0  0  0  0  0
    0.5287  -11.3708   11.2760 N   0  0  0  0  0  0  0  0  0  0  0  0
    0.7256  -12.9896   11.4431 C   0  0  0  0  0  0  0  0  0  0  0  0
    0.3271  -14.7408   11.1703 C   0  0  0  0  0  0  0  0  0  0  0  0
    0.6283  -15.6967    9.9913 N   0  0  0  0  0  0  0  0  0  0  0  0
   -0.5411  -16.6458    9.7272 C   0  0  0  0  0  0  0  0  0  0  0  0
   -0.5439  -17.5627    8.4452 C   0  0  0  0  0  0  0  0  0  0  0  0
   -1.4664  -17.6448    7.4841 N   0  0  0  0  0  0  0  0  0  0  0  0
   -1.2562  -18.8725    6.8940 C   0  0  0  0  0  0  0  0  0  0  0  0
   -1.8780  -19.5200    5.8163 C   0  0  0  0  0  0  0  0  0  0  0  0
   -1.6230  -20.8832    5.6125 C   0  0  0  0  0  0  0  0  0  0  0  0
   -0.6950  -21.5619    6.4058 C   0  0  0  0  0  0  0  0  0  0  0  0
    0.0467  -20.8906    7.3848 C   0  0  0  0  0  0  0  0  0  0  0  0
   -0.2669  -19.5493    7.5740 C   0  0  0  0  0  0  0  0  0  0  0  0
    0.2867  -18.6817    8.4738 O   0  0  0  0  0  0  0  0  0  0  0  0
    1.8984  -16.4751    9.8767 C   0  0  0  0  0  0  0  0  0  0  0  0
    3.2061  -15.9985    9.2760 C   0  0  0  0  0  0  0  0  0  0  0  0
    2.3320  -16.8321    8.4433 C   0  0  0  0  0  0  0  0  0  0  0  0
    1.0890   -8.3599   10.5968 C   0  0  0  0  0  0  0  0  0  0  0  0
    1.5226   -7.0822   11.0425 C   0  0  0  0  0  0  0  0  0  0  0  0
    0.8234   -5.8980   10.6529 C   0  0  0  0  0  0  0  0  0  0  0  0
   -0.0738   -6.1054    9.6416 C   0  0  0  0  0  0  0  0  0  0  0  0
   -0.0769   -7.7226    8.9868 S   0  0  0  0  0  0  0  0  0  0  0  0
   -0.3682  -10.9609   11.4340 H   0  0  0  0  0  0  0  0  0  0  0  0
    0.4790  -13.0114   12.5145 H   0  0  0  0  0  0  0  0  0  0  0  0
   -0.1670  -12.9630   10.8517 H   0  0  0  0  0  0  0  0  0  0  0  0
    0.7091  -15.2398   12.0641 H   0  0  0  0  0  0  0  0  0  0  0  0
   -0.7610  -14.7790   11.3235 H   0  0  0  0  0  0  0  0  0  0  0  0
   -1.4681  -16.0610    9.6732 H   0  0  0  0  0  0  0  0  0  0  0  0
   -0.5937  -17.2359   10.6407 H   0  0  0  0  0  0  0  0  0  0  0  0
   -2.5811  -18.9944    5.1873 H   0  0  0  0  0  0  0  0  0  0  0  0
   -2.1457  -21.4159    4.8220 H   0  0  0  0  0  0  0  0  0  0  0  0
   -0.5102  -22.6202    6.2337 H   0  0  0  0  0  0  0  0  0  0  0  0
    0.8002  -21.3836    7.9851 H   0  0  0  0  0  0  0  0  0  0  0  0
    1.9825  -17.2791   10.6096 H   0  0  0  0  0  0  0  0  0  0  0  0
    3.3353  -14.9563    9.0448 H   0  0  0  0  0  0  0  0  0  0  0  0
    4.1305  -16.4790    9.5836 H   0  0  0  0  0  0  0  0  0  0  0  0
    2.6536  -17.8490    8.2457 H   0  0  0  0  0  0  0  0  0  0  0  0
    1.8610  -16.3511    7.5936 H   0  0  0  0  0  0  0  0  0  0  0  0
    2.4262   -6.9966   11.6094 H   0  0  0  0  0  0  0  0  0  0  0  0
    1.0570   -4.9095   11.0298 H   0  0  0  0  0  0  0  0  0  0  0  0
   -0.6813   -5.3653    9.1394 H   0  0  0  0  0  0  0  0  0  0  0  0
  1  2  2  0
  2  3  1  0
  3  4  1  0
  4  5  1  0
  5  6  1  0
  6  7  1  0
  7  8  1  0
  8  9  2  0
  9 10  1  0
 10 11  2  0
 11 12  1  0
 12 13  2  0
 13 14  1  0
 14 15  2  0
 15 16  1  0
  6 17  1  0
 17 18  1  0
 18 19  1  0
  2 20  1  0
 20 21  2  0
 21 22  1  0
 22 23  2  0
 23 24  1  0
 16  8  1  0
 19 17  1  0
 24 20  1  0
 15 10  1  0
  3 25  1  0
  4 26  1  0
  4 27  1  0
  5 28  1  0
  5 29  1  0
  7 30  1  0
  7 31  1  0
 11 32  1  0
 12 33  1  0
 13 34  1  0
 14 35  1  0
 17 36  1  0
 18 37  1  0
 18 38  1  0
 19 39  1  0
 19 40  1  0
 21 41  1  0
 22 42  1  0
 23 43  1  0
M  END
>  <Energy>  (62) 
313.184991742384

>  <compound_id>  (62) 
11127

>  <target_id>  (62) 
1

>  <reference_id>  (62) 
66

>  <inspiration_ids>  (62) 
[2, 66]

>  <energy_score>  (62) 
212.67507625686608

>  <distance_score>  (62) 
12.532929664759454

>  <path>  (62) 
/opt/xchem-fragalysis-2/maxwin/BulkDock/SCRATCH/511014/C11127-P66/C11127-P66.minimised.mol

>  <scratch_subdir>  (62) 
/opt/xchem-fragalysis-2/maxwin/BulkDock/SCRATCH/511014/C11127-P66

>  <fragmenstein_runtime>  (62) 
15.369852542877197

>  <fragmenstein_outcome>  (62) 
too moved

>  <fragmenstein_mode>  (62) 
expansion

>  <fragmenstein_error>  (62) 


$$$$
C11128-P2
     RDKit          3D

 36 39  0  0  0  0  0  0  0  0999 V2000
   -0.5279  -16.9401    8.4403 O   0  0  0  0  0  0  0  0  0  0  0  0
   -1.2713  -17.2795    9.3192 C   0  0  0  0  0  0  0  0  0  0  0  0
   -1.3875  -16.4553   10.6380 C   0  0  0  0  0  0  0  0  0  0  0  0
    0.1097  -15.5889   11.2030 S   0  0  0  0  0  0  0  0  0  0  0  0
   -0.3183  -14.8040   12.7245 C   0  0  0  0  0  0  0  0  0  0  0  0
   -0.1044  -13.4705   13.0436 C   0  0  0  0  0  0  0  0  0  0  0  0
   -0.5019  -13.1394   14.3903 C   0  0  0  0  0  0  0  0  0  0  0  0
   -0.9849  -14.2366   15.0579 C   0  0  0  0  0  0  0  0  0  0  0  0
   -1.0092  -15.6286   14.0589 S   0  0  0  0  0  0  0  0  0  0  0  0
   -2.0736  -18.4327    9.4434 N   0  0  0  0  0  0  0  0  0  0  0  0
   -3.4699  -18.1836    8.8561 C   0  0  0  0  0  0  0  0  0  0  0  0
   -4.3769  -17.1812    8.3607 N   0  0  0  0  0  0  0  0  0  0  0  0
   -6.1822  -17.7376    8.4746 C   0  0  0  0  0  0  0  0  0  0  0  0
   -7.5592  -17.6578    8.0281 C   0  0  0  0  0  0  0  0  0  0  0  0
   -8.6647  -18.7790    7.9943 C   0  0  0  0  0  0  0  0  0  0  0  0
   -8.5553  -19.9157    8.7703 C   0  0  0  0  0  0  0  0  0  0  0  0
   -7.4787  -19.8007    9.6187 C   0  0  0  0  0  0  0  0  0  0  0  0
   -6.3477  -18.7599    9.2154 C   0  0  0  0  0  0  0  0  0  0  0  0
   -4.4979  -19.3276    9.0520 O   0  0  0  0  0  0  0  0  0  0  0  0
   -2.1736  -19.6544    8.5780 C   0  0  0  0  0  0  0  0  0  0  0  0
   -2.2236  -21.0541    9.1568 C   0  0  0  0  0  0  0  0  0  0  0  0
   -0.9170  -20.5417    8.6880 C   0  0  0  0  0  0  0  0  0  0  0  0
   -1.5398  -17.1749   11.4326 H   0  0  0  0  0  0  0  0  0  0  0  0
   -2.2063  -15.7435   10.5426 H   0  0  0  0  0  0  0  0  0  0  0  0
    0.2150  -12.7448   12.3072 H   0  0  0  0  0  0  0  0  0  0  0  0
   -0.5025  -12.1572   14.8301 H   0  0  0  0  0  0  0  0  0  0  0  0
   -1.3610  -14.2914   16.0696 H   0  0  0  0  0  0  0  0  0  0  0  0
   -7.6791  -16.6525    7.8395 H   0  0  0  0  0  0  0  0  0  0  0  0
   -9.5519  -18.7281    7.4064 H   0  0  0  0  0  0  0  0  0  0  0  0
   -9.3007  -20.6910    8.8377 H   0  0  0  0  0  0  0  0  0  0  0  0
   -7.2769  -20.5092   10.4171 H   0  0  0  0  0  0  0  0  0  0  0  0
   -2.3028  -19.4698    7.5069 H   0  0  0  0  0  0  0  0  0  0  0  0
   -2.7100  -21.8227    8.5710 H   0  0  0  0  0  0  0  0  0  0  0  0
   -2.3935  -21.1429   10.2251 H   0  0  0  0  0  0  0  0  0  0  0  0
   -0.1724  -20.3003    9.4385 H   0  0  0  0  0  0  0  0  0  0  0  0
   -0.5052  -20.9540    7.7745 H   0  0  0  0  0  0  0  0  0  0  0  0
  1  2  2  0
  2  3  1  0
  3  4  1  0
  4  5  1  0
  5  6  2  0
  6  7  1  0
  7  8  2  0
  8  9  1  0
  2 10  1  0
 10 11  1  0
 11 12  2  0
 12 13  1  0
 13 14  2  0
 14 15  1  0
 15 16  2  0
 16 17  1  0
 17 18  2  0
 18 19  1  0
 10 20  1  0
 20 21  1  0
 21 22  1  0
  9  5  1  0
 19 11  1  0
 22 20  1  0
 18 13  1  0
  3 23  1  0
  3 24  1  0
  6 25  1  0
  7 26  1  0
  8 27  1  0
 14 28  1  0
 15 29  1  0
 16 30  1  0
 17 31  1  0
 20 32  1  0
 21 33  1  0
 21 34  1  0
 22 35  1  0
 22 36  1  0
M  END
>  <Energy>  (63) 
378.17178267886442

>  <compound_id>  (63) 
11128

>  <target_id>  (63) 
1

>  <reference_id>  (63) 
2

>  <inspiration_ids>  (63) 
[2, 66]

>  <energy_score>  (63) 
271.63828254702736

>  <distance_score>  (63) 
13.492844677345909

>  <path>  (63) 
/opt/xchem-fragalysis-2/maxwin/BulkDock/SCRATCH/511014/C11128-P2/C11128-P2.minimised.mol

>  <scratch_subdir>  (63) 
/opt/xchem-fragalysis-2/maxwin/BulkDock/SCRATCH/511014/C11128-P2

>  <fragmenstein_runtime>  (63) 
11.975638628005981

>  <fragmenstein_outcome>  (63) 
too moved

>  <fragmenstein_mode>  (63) 
expansion

>  <fragmenstein_error>  (63) 


$$$$
C11128-P66
     RDKit          3D

 36 39  0  0  0  0  0  0  0  0999 V2000
   -2.6039   -9.4257   18.9754 O   0  0  0  0  0  0  0  0  0  0  0  0
   -2.3538   -9.3053   17.7979 C   0  0  0  0  0  0  0  0  0  0  0  0
   -0.8662   -9.0676   17.4044 C   0  0  0  0  0  0  0  0  0  0  0  0
   -0.1409   -7.4823   18.1197 S   0  0  0  0  0  0  0  0  0  0  0  0
    1.5818   -7.2983   17.6900 C   0  0  0  0  0  0  0  0  0  0  0  0
    2.6213   -8.2004   17.8186 C   0  0  0  0  0  0  0  0  0  0  0  0
    3.8923   -7.6696   17.4123 C   0  0  0  0  0  0  0  0  0  0  0  0
    3.8037   -6.3509   17.0359 C   0  0  0  0  0  0  0  0  0  0  0  0
    2.2070   -5.7563   17.2047 S   0  0  0  0  0  0  0  0  0  0  0  0
   -3.2381   -9.2455   16.6489 N   0  0  0  0  0  0  0  0  0  0  0  0
   -3.4874  -10.6816   16.0675 C   0  0  0  0  0  0  0  0  0  0  0  0
   -4.3389  -11.0548   15.0944 N   0  0  0  0  0  0  0  0  0  0  0  0
   -4.3324  -12.4268   15.0802 C   0  0  0  0  0  0  0  0  0  0  0  0
   -5.1234  -13.3536   14.3775 C   0  0  0  0  0  0  0  0  0  0  0  0
   -4.8673  -14.7211   14.5552 C   0  0  0  0  0  0  0  0  0  0  0  0
   -3.8281  -15.1500   15.3859 C   0  0  0  0  0  0  0  0  0  0  0  0
   -3.0343  -14.2317   16.0940 C   0  0  0  0  0  0  0  0  0  0  0  0
   -3.3368  -12.8798   15.9236 C   0  0  0  0  0  0  0  0  0  0  0  0
   -2.7619  -11.7759   16.5360 O   0  0  0  0  0  0  0  0  0  0  0  0
   -4.7396   -9.2020   16.5679 C   0  0  0  0  0  0  0  0  0  0  0  0
   -5.3439   -7.8113   16.7617 C   0  0  0  0  0  0  0  0  0  0  0  0
   -5.4711   -8.4885   15.4425 C   0  0  0  0  0  0  0  0  0  0  0  0
   -0.3146   -9.9205   17.8062 H   0  0  0  0  0  0  0  0  0  0  0  0
   -0.8158   -8.9881   16.3222 H   0  0  0  0  0  0  0  0  0  0  0  0
    2.4848   -9.2126   18.1794 H   0  0  0  0  0  0  0  0  0  0  0  0
    4.8142   -8.2374   17.4029 H   0  0  0  0  0  0  0  0  0  0  0  0
    4.5929   -5.7039   16.6815 H   0  0  0  0  0  0  0  0  0  0  0  0
   -5.9187  -13.0043   13.7293 H   0  0  0  0  0  0  0  0  0  0  0  0
   -5.4826  -15.4562   14.0444 H   0  0  0  0  0  0  0  0  0  0  0  0
   -3.6312  -16.2144   15.5012 H   0  0  0  0  0  0  0  0  0  0  0  0
   -2.2401  -14.5542   16.7571 H   0  0  0  0  0  0  0  0  0  0  0  0
   -5.2653   -9.9132   17.2189 H   0  0  0  0  0  0  0  0  0  0  0  0
   -6.2303   -7.7286   17.3807 H   0  0  0  0  0  0  0  0  0  0  0  0
   -4.6748   -6.9615   16.8358 H   0  0  0  0  0  0  0  0  0  0  0  0
   -4.8835   -8.1141   14.6121 H   0  0  0  0  0  0  0  0  0  0  0  0
   -6.4383   -8.8834   15.1534 H   0  0  0  0  0  0  0  0  0  0  0  0
  1  2  2  0
  2  3  1  0
  3  4  1  0
  4  5  1  0
  5  6  2  0
  6  7  1  0
  7  8  2  0
  8  9  1  0
  2 10  1  0
 10 11  1  0
 11 12  2  0
 12 13  1  0
 13 14  2  0
 14 15  1  0
 15 16  2  0
 16 17  1  0
 17 18  2  0
 18 19  1  0
 10 20  1  0
 20 21  1  0
 21 22  1  0
  9  5  1  0
 19 11  1  0
 22 20  1  0
 18 13  1  0
  3 23  1  0
  3 24  1  0
  6 25  1  0
  7 26  1  0
  8 27  1  0
 14 28  1  0
 15 29  1  0
 16 30  1  0
 17 31  1  0
 20 32  1  0
 21 33  1  0
 21 34  1  0
 22 35  1  0
 22 36  1  0
M  END
>  <Energy>  (64) 
115.62287230694339

>  <compound_id>  (64) 
11128

>  <target_id>  (64) 
1

>  <reference_id>  (64) 
66

>  <inspiration_ids>  (64) 
[2, 66]

>  <energy_score>  (64) 
9.089372175113482

>  <distance_score>  (64) 
13.509322281332546

>  <path>  (64) 
/opt/xchem-fragalysis-2/maxwin/BulkDock/SCRATCH/511014/C11128-P66/C11128-P66.minimised.mol

>  <scratch_subdir>  (64) 
/opt/xchem-fragalysis-2/maxwin/BulkDock/SCRATCH/511014/C11128-P66

>  <fragmenstein_runtime>  (64) 
10.736490964889526

>  <fragmenstein_outcome>  (64) 
too moved

>  <fragmenstein_mode>  (64) 
expansion

>  <fragmenstein_error>  (64) 


$$$$
C11130-P2
     RDKit          3D

 40 43  0  0  0  0  0  0  0  0999 V2000
    3.8676   -8.8470   14.9156 O   0  0  0  0  0  0  0  0  0  0  0  0
    4.5674   -9.5565   14.2199 C   0  0  0  0  0  0  0  0  0  0  0  0
    4.1662  -10.5503   12.9737 N   0  0  0  0  0  0  0  0  0  0  0  0
    2.3787  -10.9001   11.9750 C   0  0  0  0  0  0  0  0  0  0  0  0
    0.5263  -11.8769   11.8442 C   0  0  0  0  0  0  0  0  0  0  0  0
   -0.5466  -13.3549   11.1715 N   0  0  0  0  0  0  0  0  0  0  0  0
   -2.0404  -13.7388   10.3723 C   0  0  0  0  0  0  0  0  0  0  0  0
   -3.2629  -13.2113    9.9901 N   0  0  0  0  0  0  0  0  0  0  0  0
   -4.1682  -14.1885    9.0174 C   0  0  0  0  0  0  0  0  0  0  0  0
   -5.8064  -14.3735    9.0257 C   0  0  0  0  0  0  0  0  0  0  0  0
   -6.6982  -15.8644    8.9412 C   0  0  0  0  0  0  0  0  0  0  0  0
   -5.9854  -17.4587    8.4490 C   0  0  0  0  0  0  0  0  0  0  0  0
   -4.1155  -16.9687    8.1906 C   0  0  0  0  0  0  0  0  0  0  0  0
   -3.4136  -15.4038    8.6610 C   0  0  0  0  0  0  0  0  0  0  0  0
   -2.2043  -15.2208    9.6428 O   0  0  0  0  0  0  0  0  0  0  0  0
   -0.0378  -14.6658   11.7828 C   0  0  0  0  0  0  0  0  0  0  0  0
   -0.8350  -15.9431   11.8998 C   0  0  0  0  0  0  0  0  0  0  0  0
    0.3138  -15.9040   10.9658 C   0  0  0  0  0  0  0  0  0  0  0  0
    6.3646   -9.3080   14.5925 C   0  0  0  0  0  0  0  0  0  0  0  0
    6.5663   -7.9424   14.6849 C   0  0  0  0  0  0  0  0  0  0  0  0
    8.2015   -7.3085   14.6267 C   0  0  0  0  0  0  0  0  0  0  0  0
    9.2776   -8.0794   15.1600 C   0  0  0  0  0  0  0  0  0  0  0  0
    8.2544  -10.0088   15.5830 S   0  0  0  0  0  0  0  0  0  0  0  0
    4.9958  -11.0638   12.6650 H   0  0  0  0  0  0  0  0  0  0  0  0
    2.3066  -10.1045   11.1985 H   0  0  0  0  0  0  0  0  0  0  0  0
    2.8367  -11.5137   11.1414 H   0  0  0  0  0  0  0  0  0  0  0  0
   -0.1841  -11.0866   11.6625 H   0  0  0  0  0  0  0  0  0  0  0  0
    0.3670  -12.2294   12.8653 H   0  0  0  0  0  0  0  0  0  0  0  0
   -6.3534  -13.4869    9.3493 H   0  0  0  0  0  0  0  0  0  0  0  0
   -7.7024  -15.9697    8.9425 H   0  0  0  0  0  0  0  0  0  0  0  0
   -6.4494  -18.3650    8.7844 H   0  0  0  0  0  0  0  0  0  0  0  0
   -3.3406  -17.7386    8.4086 H   0  0  0  0  0  0  0  0  0  0  0  0
    0.5574  -14.4363   12.6499 H   0  0  0  0  0  0  0  0  0  0  0  0
   -0.7113  -16.7191   12.6305 H   0  0  0  0  0  0  0  0  0  0  0  0
   -1.8376  -15.9962   11.5381 H   0  0  0  0  0  0  0  0  0  0  0  0
    0.0750  -16.0527    9.9311 H   0  0  0  0  0  0  0  0  0  0  0  0
    1.1302  -16.5630   11.2368 H   0  0  0  0  0  0  0  0  0  0  0  0
    5.7313   -7.2947   14.4441 H   0  0  0  0  0  0  0  0  0  0  0  0
    8.3234   -7.1719   13.5665 H   0  0  0  0  0  0  0  0  0  0  0  0
   10.1141   -7.5616   15.4732 H   0  0  0  0  0  0  0  0  0  0  0  0
  1  2  2  0
  2  3  1  0
  3  4  1  0
  4  5  1  0
  5  6  1  0
  6  7  1  0
  7  8  2  0
  8  9  1  0
  9 10  2  0
 10 11  1  0
 11 12  2  0
 12 13  1  0
 13 14  2  0
 14 15  1  0
  6 16  1  0
 16 17  1  0
 17 18  1  0
  2 19  1  0
 19 20  2  0
 20 21  1  0
 21 22  2  0
 22 23  1  0
 15  7  1  0
 18 16  1  0
 23 19  1  0
 14  9  1  0
  3 24  1  0
  4 25  1  0
  4 26  1  0
  5 27  1  0
  5 28  1  0
 10 29  1  0
 11 30  1  0
 12 31  1  0
 13 32  1  0
 16 33  1  0
 17 34  1  0
 17 35  1  0
 18 36  1  0
 18 37  1  0
 20 38  1  0
 21 39  1  0
 22 40  1  0
M  END
>  <Energy>  (65) 
1027.8529395908447

>  <compound_id>  (65) 
11130

>  <target_id>  (65) 
1

>  <reference_id>  (65) 
2

>  <inspiration_ids>  (65) 
[2, 66]

>  <energy_score>  (65) 
980.2851917883642

>  <distance_score>  (65) 
10.170250005661668

>  <path>  (65) 
/opt/xchem-fragalysis-2/maxwin/BulkDock/SCRATCH/511014/C11130-P2/C11130-P2.minimised.mol

>  <scratch_subdir>  (65) 
/opt/xchem-fragalysis-2/maxwin/BulkDock/SCRATCH/511014/C11130-P2

>  <fragmenstein_runtime>  (65) 
10.783689737319946

>  <fragmenstein_outcome>  (65) 
too moved

>  <fragmenstein_mode>  (65) 
expansion

>  <fragmenstein_error>  (65) 


$$$$
C11130-P66
     RDKit          3D

 40 43  0  0  0  0  0  0  0  0999 V2000
    2.9034  -16.1672    8.0972 O   0  0  0  0  0  0  0  0  0  0  0  0
    3.2444  -17.1736    8.6494 C   0  0  0  0  0  0  0  0  0  0  0  0
    2.4694  -18.2703    9.1620 N   0  0  0  0  0  0  0  0  0  0  0  0
    1.0284  -18.5524    9.0870 C   0  0  0  0  0  0  0  0  0  0  0  0
    0.1378  -17.4269    8.5237 C   0  0  0  0  0  0  0  0  0  0  0  0
   -1.1140  -17.8302    7.8722 N   0  0  0  0  0  0  0  0  0  0  0  0
   -2.3190  -17.4956    8.4097 C   0  0  0  0  0  0  0  0  0  0  0  0
   -3.1467  -16.4728    8.0685 N   0  0  0  0  0  0  0  0  0  0  0  0
   -4.3954  -17.0629    8.1152 C   0  0  0  0  0  0  0  0  0  0  0  0
   -6.3535  -17.0229    8.2282 C   0  0  0  0  0  0  0  0  0  0  0  0
   -7.4022  -17.8261    7.9846 C   0  0  0  0  0  0  0  0  0  0  0  0
   -7.1612  -18.8869    8.5821 C   0  0  0  0  0  0  0  0  0  0  0  0
   -6.0216  -18.4989    9.3609 C   0  0  0  0  0  0  0  0  0  0  0  0
   -4.1618  -18.2676    9.0165 C   0  0  0  0  0  0  0  0  0  0  0  0
   -2.8650  -18.4767    9.2358 O   0  0  0  0  0  0  0  0  0  0  0  0
   -1.1036  -19.0152    6.9965 C   0  0  0  0  0  0  0  0  0  0  0  0
   -0.0740  -19.1805    5.9055 C   0  0  0  0  0  0  0  0  0  0  0  0
   -1.4995  -18.9048    5.5471 C   0  0  0  0  0  0  0  0  0  0  0  0
    4.7002  -17.3956    8.8001 C   0  0  0  0  0  0  0  0  0  0  0  0
    5.6933  -16.9588    7.9375 C   0  0  0  0  0  0  0  0  0  0  0  0
    7.0154  -17.1805    8.4120 C   0  0  0  0  0  0  0  0  0  0  0  0
    6.9976  -17.9649    9.5380 C   0  0  0  0  0  0  0  0  0  0  0  0
    5.3998  -18.2252   10.1186 S   0  0  0  0  0  0  0  0  0  0  0  0
    3.0880  -18.9161    9.6425 H   0  0  0  0  0  0  0  0  0  0  0  0
    0.9533  -19.4689    8.4959 H   0  0  0  0  0  0  0  0  0  0  0  0
    0.7014  -18.8101   10.1004 H   0  0  0  0  0  0  0  0  0  0  0  0
   -0.0541  -16.7168    9.3367 H   0  0  0  0  0  0  0  0  0  0  0  0
    0.6968  -16.9024    7.7463 H   0  0  0  0  0  0  0  0  0  0  0  0
   -6.6974  -16.0318    8.6637 H   0  0  0  0  0  0  0  0  0  0  0  0
   -8.4155  -17.7601    8.2035 H   0  0  0  0  0  0  0  0  0  0  0  0
   -7.9140  -19.6474    8.8068 H   0  0  0  0  0  0  0  0  0  0  0  0
   -6.5199  -19.0970   10.3335 H   0  0  0  0  0  0  0  0  0  0  0  0
   -1.3962  -19.9251    7.5195 H   0  0  0  0  0  0  0  0  0  0  0  0
    0.6440  -18.3868    5.7348 H   0  0  0  0  0  0  0  0  0  0  0  0
    0.3132  -20.1759    5.7234 H   0  0  0  0  0  0  0  0  0  0  0  0
   -2.0837  -19.7107    5.1209 H   0  0  0  0  0  0  0  0  0  0  0  0
   -1.7320  -17.9227    5.1521 H   0  0  0  0  0  0  0  0  0  0  0  0
    5.4686  -16.5051    6.9797 H   0  0  0  0  0  0  0  0  0  0  0  0
    7.9176  -16.8827    7.8895 H   0  0  0  0  0  0  0  0  0  0  0  0
    7.8432  -18.3859   10.0671 H   0  0  0  0  0  0  0  0  0  0  0  0
  1  2  2  0
  2  3  1  0
  3  4  1  0
  4  5  1  0
  5  6  1  0
  6  7  1  0
  7  8  2  0
  8  9  1  0
  9 10  2  0
 10 11  1  0
 11 12  2  0
 12 13  1  0
 13 14  2  0
 14 15  1  0
  6 16  1  0
 16 17  1  0
 17 18  1  0
  2 19  1  0
 19 20  2  0
 20 21  1  0
 21 22  2  0
 22 23  1  0
 15  7  1  0
 18 16  1  0
 23 19  1  0
 14  9  1  0
  3 24  1  0
  4 25  1  0
  4 26  1  0
  5 27  1  0
  5 28  1  0
 10 29  1  0
 11 30  1  0
 12 31  1  0
 13 32  1  0
 16 33  1  0
 17 34  1  0
 17 35  1  0
 18 36  1  0
 18 37  1  0
 20 38  1  0
 21 39  1  0
 22 40  1  0
M  END
>  <Energy>  (66) 
448.87538367034307

>  <compound_id>  (66) 
11130

>  <target_id>  (66) 
1

>  <reference_id>  (66) 
66

>  <inspiration_ids>  (66) 
[2, 66]

>  <energy_score>  (66) 
401.3076358678744

>  <distance_score>  (66) 
14.434081070612315

>  <path>  (66) 
/opt/xchem-fragalysis-2/maxwin/BulkDock/SCRATCH/511014/C11130-P66/C11130-P66.minimised.mol

>  <scratch_subdir>  (66) 
/opt/xchem-fragalysis-2/maxwin/BulkDock/SCRATCH/511014/C11130-P66

>  <fragmenstein_runtime>  (66) 
12.985278129577637

>  <fragmenstein_outcome>  (66) 
too moved

>  <fragmenstein_mode>  (66) 
expansion

>  <fragmenstein_error>  (66) 


$$$$
C11132-P2
     RDKit          3D

 35 38  0  0  0  0  0  0  0  0999 V2000
    7.6611  -17.4319    9.4586 O   0  0  0  0  0  0  0  0  0  0  0  0
    6.9693  -16.9381    8.6142 C   0  0  0  0  0  0  0  0  0  0  0  0
    5.5540  -17.1792    8.2711 N   0  0  0  0  0  0  0  0  0  0  0  0
    4.5825  -18.1736    8.7991 C   0  0  0  0  0  0  0  0  0  0  0  0
    3.0618  -18.1552    8.5365 C   0  0  0  0  0  0  0  0  0  0  0  0
    2.2615  -17.4848    7.7105 N   0  0  0  0  0  0  0  0  0  0  0  0
    0.9773  -17.9748    7.9908 C   0  0  0  0  0  0  0  0  0  0  0  0
   -0.2948  -17.6520    7.4816 C   0  0  0  0  0  0  0  0  0  0  0  0
   -1.4299  -18.2836    8.0306 C   0  0  0  0  0  0  0  0  0  0  0  0
   -1.3128  -19.2522    9.0320 C   0  0  0  0  0  0  0  0  0  0  0  0
   -0.0524  -19.6178    9.5200 C   0  0  0  0  0  0  0  0  0  0  0  0
    1.0451  -18.9435    8.9753 C   0  0  0  0  0  0  0  0  0  0  0  0
    2.3636  -19.0874    9.3057 O   0  0  0  0  0  0  0  0  0  0  0  0
    7.7717  -15.9310    7.7105 C   0  0  0  0  0  0  0  0  0  0  0  0
    8.7301  -14.7548    8.4656 C   0  0  0  0  0  0  0  0  0  0  0  0
    9.6796  -15.0186    9.4330 C   0  0  0  0  0  0  0  0  0  0  0  0
   10.5459  -13.9021    9.6752 C   0  0  0  0  0  0  0  0  0  0  0  0
   10.1996  -12.8013    8.9238 C   0  0  0  0  0  0  0  0  0  0  0  0
    8.8440  -13.1202    7.9342 S   0  0  0  0  0  0  0  0  0  0  0  0
    8.5599  -16.6353    6.5858 C   0  0  0  0  0  0  0  0  0  0  0  0
    7.4544  -15.6952    6.2445 C   0  0  0  0  0  0  0  0  0  0  0  0
    5.3173  -16.6452    7.4465 H   0  0  0  0  0  0  0  0  0  0  0  0
    4.7318  -18.1758    9.8859 H   0  0  0  0  0  0  0  0  0  0  0  0
    4.9524  -19.1425    8.4414 H   0  0  0  0  0  0  0  0  0  0  0  0
   -0.3948  -16.9035    6.7039 H   0  0  0  0  0  0  0  0  0  0  0  0
   -2.4168  -18.0003    7.6822 H   0  0  0  0  0  0  0  0  0  0  0  0
   -2.2086  -19.7160    9.4499 H   0  0  0  0  0  0  0  0  0  0  0  0
    0.0659  -20.3537   10.3066 H   0  0  0  0  0  0  0  0  0  0  0  0
    9.7995  -15.9921    9.8928 H   0  0  0  0  0  0  0  0  0  0  0  0
   11.3770  -13.9168   10.3690 H   0  0  0  0  0  0  0  0  0  0  0  0
   10.6694  -11.8282    8.9103 H   0  0  0  0  0  0  0  0  0  0  0  0
    8.3958  -17.6964    6.4378 H   0  0  0  0  0  0  0  0  0  0  0  0
    9.5784  -16.3175    6.3960 H   0  0  0  0  0  0  0  0  0  0  0  0
    6.5557  -16.1168    5.8125 H   0  0  0  0  0  0  0  0  0  0  0  0
    7.7127  -14.7437    5.7945 H   0  0  0  0  0  0  0  0  0  0  0  0
  1  2  2  0
  2  3  1  0
  3  4  1  0
  4  5  1  0
  5  6  2  0
  6  7  1  0
  7  8  2  0
  8  9  1  0
  9 10  2  0
 10 11  1  0
 11 12  2  0
 12 13  1  0
  2 14  1  0
 14 15  1  0
 15 16  2  0
 16 17  1  0
 17 18  2  0
 18 19  1  0
 14 20  1  0
 20 21  1  0
 13  5  1  0
 21 14  1  0
 12  7  1  0
 19 15  1  0
  3 22  1  0
  4 23  1  0
  4 24  1  0
  8 25  1  0
  9 26  1  0
 10 27  1  0
 11 28  1  0
 16 29  1  0
 17 30  1  0
 18 31  1  0
 20 32  1  0
 20 33  1  0
 21 34  1  0
 21 35  1  0
M  END
>  <Energy>  (67) 
65.435388190651764

>  <compound_id>  (67) 
11132

>  <target_id>  (67) 
1

>  <reference_id>  (67) 
2

>  <inspiration_ids>  (67) 
[2, 66]

>  <energy_score>  (67) 
-19.64953516036124

>  <distance_score>  (67) 
13.900542056468582

>  <path>  (67) 
/opt/xchem-fragalysis-2/maxwin/BulkDock/SCRATCH/511014/C11132-P2/C11132-P2.minimised.mol

>  <scratch_subdir>  (67) 
/opt/xchem-fragalysis-2/maxwin/BulkDock/SCRATCH/511014/C11132-P2

>  <fragmenstein_runtime>  (67) 
13.33333444595337

>  <fragmenstein_outcome>  (67) 
too moved

>  <fragmenstein_mode>  (67) 
expansion

>  <fragmenstein_error>  (67) 


$$$$
C11132-P66
     RDKit          3D

 35 38  0  0  0  0  0  0  0  0999 V2000
   -5.4877  -10.7593    6.5082 O   0  0  0  0  0  0  0  0  0  0  0  0
   -5.7502  -11.1960    7.5894 C   0  0  0  0  0  0  0  0  0  0  0  0
   -6.3301  -12.4977    7.9837 N   0  0  0  0  0  0  0  0  0  0  0  0
   -6.6684  -13.6854    7.1742 C   0  0  0  0  0  0  0  0  0  0  0  0
   -7.5493  -15.0554    7.5321 C   0  0  0  0  0  0  0  0  0  0  0  0
   -7.5768  -16.6865    8.1648 N   0  0  0  0  0  0  0  0  0  0  0  0
   -9.2447  -17.7531    8.2740 C   0  0  0  0  0  0  0  0  0  0  0  0
   -9.3300  -19.4333    7.7477 C   0  0  0  0  0  0  0  0  0  0  0  0
   -9.7964  -19.7853    6.2063 C   0  0  0  0  0  0  0  0  0  0  0  0
  -10.5135  -18.7385    5.1744 C   0  0  0  0  0  0  0  0  0  0  0  0
  -11.0554  -17.2208    5.6629 C   0  0  0  0  0  0  0  0  0  0  0  0
  -10.6399  -16.5501    7.2646 C   0  0  0  0  0  0  0  0  0  0  0  0
   -9.4833  -14.8836    6.8566 O   0  0  0  0  0  0  0  0  0  0  0  0
   -5.4625  -10.1334    8.7278 C   0  0  0  0  0  0  0  0  0  0  0  0
   -4.4422   -8.7830    8.3104 C   0  0  0  0  0  0  0  0  0  0  0  0
   -4.6232   -7.4801    8.7593 C   0  0  0  0  0  0  0  0  0  0  0  0
   -3.5767   -6.5804    8.3427 C   0  0  0  0  0  0  0  0  0  0  0  0
   -2.6112   -7.2252    7.6054 C   0  0  0  0  0  0  0  0  0  0  0  0
   -3.0203   -8.8668    7.3548 S   0  0  0  0  0  0  0  0  0  0  0  0
   -6.6794   -9.8046    9.5981 C   0  0  0  0  0  0  0  0  0  0  0  0
   -5.4762  -10.4432   10.2196 C   0  0  0  0  0  0  0  0  0  0  0  0
   -6.3392  -12.5646    8.9909 H   0  0  0  0  0  0  0  0  0  0  0  0
   -5.7587  -13.9053    6.6040 H   0  0  0  0  0  0  0  0  0  0  0  0
   -7.3030  -13.2080    6.4094 H   0  0  0  0  0  0  0  0  0  0  0  0
   -8.6504  -20.1086    8.2618 H   0  0  0  0  0  0  0  0  0  0  0  0
   -9.5670  -20.7835    5.8350 H   0  0  0  0  0  0  0  0  0  0  0  0
  -10.7918  -19.0794    4.1793 H   0  0  0  0  0  0  0  0  0  0  0  0
  -11.6908  -16.5915    5.0443 H   0  0  0  0  0  0  0  0  0  0  0  0
   -5.4525   -7.1659    9.3779 H   0  0  0  0  0  0  0  0  0  0  0  0
   -3.5358   -5.5294    8.5998 H   0  0  0  0  0  0  0  0  0  0  0  0
   -1.7100   -6.8108    7.1754 H   0  0  0  0  0  0  0  0  0  0  0  0
   -7.5757  -10.4050    9.4842 H   0  0  0  0  0  0  0  0  0  0  0  0
   -6.9001   -8.7750    9.8461 H   0  0  0  0  0  0  0  0  0  0  0  0
   -4.9211   -9.8249   10.9150 H   0  0  0  0  0  0  0  0  0  0  0  0
   -5.5741  -11.4634   10.5647 H   0  0  0  0  0  0  0  0  0  0  0  0
  1  2  2  0
  2  3  1  0
  3  4  1  0
  4  5  1  0
  5  6  2  0
  6  7  1  0
  7  8  2  0
  8  9  1  0
  9 10  2  0
 10 11  1  0
 11 12  2  0
 12 13  1  0
  2 14  1  0
 14 15  1  0
 15 16  2  0
 16 17  1  0
 17 18  2  0
 18 19  1  0
 14 20  1  0
 20 21  1  0
 13  5  1  0
 21 14  1  0
 12  7  1  0
 19 15  1  0
  3 22  1  0
  4 23  1  0
  4 24  1  0
  8 25  1  0
  9 26  1  0
 10 27  1  0
 11 28  1  0
 16 29  1  0
 17 30  1  0
 18 31  1  0
 20 32  1  0
 20 33  1  0
 21 34  1  0
 21 35  1  0
M  END
>  <Energy>  (68) 
897.73675329030414

>  <compound_id>  (68) 
11132

>  <target_id>  (68) 
1

>  <reference_id>  (68) 
66

>  <inspiration_ids>  (68) 
[2, 66]

>  <energy_score>  (68) 
812.6518299392918

>  <distance_score>  (68) 
15.224109437649334

>  <path>  (68) 
/opt/xchem-fragalysis-2/maxwin/BulkDock/SCRATCH/511014/C11132-P66/C11132-P66.minimised.mol

>  <scratch_subdir>  (68) 
/opt/xchem-fragalysis-2/maxwin/BulkDock/SCRATCH/511014/C11132-P66

>  <fragmenstein_runtime>  (68) 
16.36104965209961

>  <fragmenstein_outcome>  (68) 
too moved

>  <fragmenstein_mode>  (68) 
expansion

>  <fragmenstein_error>  (68) 


$$$$
C11133-P2
     RDKit          3D

 43 46  0  0  0  0  0  0  0  0999 V2000
    4.2826   -7.5003   13.2788 O   0  0  0  0  0  0  0  0  0  0  0  0
    4.9285   -8.4055   13.7549 C   0  0  0  0  0  0  0  0  0  0  0  0
    6.8644   -7.6694   14.3352 C   0  0  0  0  0  0  0  0  0  0  0  0
    8.3272   -6.0615   14.7553 C   0  0  0  0  0  0  0  0  0  0  0  0
    8.5716   -4.2058   15.0912 C   0  0  0  0  0  0  0  0  0  0  0  0
    9.6580   -3.0480   14.9399 C   0  0  0  0  0  0  0  0  0  0  0  0
   10.7544   -3.7023   15.3300 C   0  0  0  0  0  0  0  0  0  0  0  0
   10.3959   -4.9747   14.3358 S   0  0  0  0  0  0  0  0  0  0  0  0
    4.1361  -10.2162   13.8333 N   0  0  0  0  0  0  0  0  0  0  0  0
    2.2978  -10.9892   13.1479 C   0  0  0  0  0  0  0  0  0  0  0  0
    0.7574  -12.5067   13.6228 C   0  0  0  0  0  0  0  0  0  0  0  0
   -0.6769  -13.9675   13.5398 N   0  0  0  0  0  0  0  0  0  0  0  0
   -2.1905  -14.8201   14.1121 C   0  0  0  0  0  0  0  0  0  0  0  0
   -3.4485  -14.6598   14.6270 N   0  0  0  0  0  0  0  0  0  0  0  0
   -4.4592  -16.0522   14.5190 C   0  0  0  0  0  0  0  0  0  0  0  0
   -5.8524  -16.1045   14.0666 C   0  0  0  0  0  0  0  0  0  0  0  0
   -6.6000  -17.3982   13.1566 C   0  0  0  0  0  0  0  0  0  0  0  0
   -6.2277  -18.6237   12.6802 C   0  0  0  0  0  0  0  0  0  0  0  0
   -4.9782  -18.7709   13.2208 C   0  0  0  0  0  0  0  0  0  0  0  0
   -3.9131  -17.4404   14.2311 C   0  0  0  0  0  0  0  0  0  0  0  0
   -2.6065  -16.4111   13.6604 O   0  0  0  0  0  0  0  0  0  0  0  0
    0.1304  -12.5368   12.3180 C   0  0  0  0  0  0  0  0  0  0  0  0
    0.3056  -11.9006   11.1071 C   0  0  0  0  0  0  0  0  0  0  0  0
   -0.3219  -11.1494   12.0776 C   0  0  0  0  0  0  0  0  0  0  0  0
    7.3759   -8.3147   14.9068 H   0  0  0  0  0  0  0  0  0  0  0  0
    7.1348   -7.8006   13.2342 H   0  0  0  0  0  0  0  0  0  0  0  0
    7.6961   -3.5478   15.2978 H   0  0  0  0  0  0  0  0  0  0  0  0
    9.4282   -1.9913   15.0250 H   0  0  0  0  0  0  0  0  0  0  0  0
   11.7327   -3.3327   15.6026 H   0  0  0  0  0  0  0  0  0  0  0  0
    4.8349  -10.8671   14.1795 H   0  0  0  0  0  0  0  0  0  0  0  0
    2.7993  -10.9371   12.0689 H   0  0  0  0  0  0  0  0  0  0  0  0
    1.7982  -10.7294   12.1830 H   0  0  0  0  0  0  0  0  0  0  0  0
    1.3894  -13.3196   13.7764 H   0  0  0  0  0  0  0  0  0  0  0  0
   -0.1124  -14.7430   13.1730 H   0  0  0  0  0  0  0  0  0  0  0  0
   -6.4776  -15.2563   14.3382 H   0  0  0  0  0  0  0  0  0  0  0  0
   -7.7286  -17.3562   13.1655 H   0  0  0  0  0  0  0  0  0  0  0  0
   -6.7094  -19.3261   12.0240 H   0  0  0  0  0  0  0  0  0  0  0  0
   -4.3651  -19.3230   12.4093 H   0  0  0  0  0  0  0  0  0  0  0  0
    0.1253  -13.5172   11.8372 H   0  0  0  0  0  0  0  0  0  0  0  0
   -0.4989  -12.1838   10.4814 H   0  0  0  0  0  0  0  0  0  0  0  0
    1.3567  -11.9480   10.9239 H   0  0  0  0  0  0  0  0  0  0  0  0
    0.2204  -10.2402   12.0016 H   0  0  0  0  0  0  0  0  0  0  0  0
   -1.3252  -10.9053   12.1618 H   0  0  0  0  0  0  0  0  0  0  0  0
  1  2  2  0
  2  3  1  0
  3  4  1  0
  4  5  2  0
  5  6  1  0
  6  7  2  0
  7  8  1  0
  2  9  1  0
  9 10  1  0
 10 11  1  0
 11 12  1  0
 12 13  1  0
 13 14  2  0
 14 15  1  0
 15 16  2  0
 16 17  1  0
 17 18  2  0
 18 19  1  0
 19 20  2  0
 20 21  1  0
 11 22  1  0
 22 23  1  0
 23 24  1  0
  8  4  1  0
 21 13  1  0
 24 22  1  0
 20 15  1  0
  3 25  1  0
  3 26  1  0
  5 27  1  0
  6 28  1  0
  7 29  1  0
  9 30  1  0
 10 31  1  0
 10 32  1  0
 11 33  1  0
 12 34  1  0
 16 35  1  0
 17 36  1  0
 18 37  1  0
 19 38  1  0
 22 39  1  0
 23 40  1  0
 23 41  1  0
 24 42  1  0
 24 43  1  0
M  END
>  <Energy>  (69) 
1906.6077471923759

>  <compound_id>  (69) 
11133

>  <target_id>  (69) 
1

>  <reference_id>  (69) 
2

>  <inspiration_ids>  (69) 
[2, 66]

>  <energy_score>  (69) 
1827.488759447079

>  <distance_score>  (69) 
9.05848916610461

>  <path>  (69) 
/opt/xchem-fragalysis-2/maxwin/BulkDock/SCRATCH/511014/C11133-P2/C11133-P2.minimised.mol

>  <scratch_subdir>  (69) 
/opt/xchem-fragalysis-2/maxwin/BulkDock/SCRATCH/511014/C11133-P2

>  <fragmenstein_runtime>  (69) 
27.55220341682434

>  <fragmenstein_outcome>  (69) 
too moved

>  <fragmenstein_mode>  (69) 
expansion

>  <fragmenstein_error>  (69) 


$$$$
C11133-P66
     RDKit          3D

 43 46  0  0  0  0  0  0  0  0999 V2000
    4.8561  -18.4868    6.7317 O   0  0  0  0  0  0  0  0  0  0  0  0
    4.1366  -18.4272    7.6891 C   0  0  0  0  0  0  0  0  0  0  0  0
    4.7029  -17.8719    9.0371 C   0  0  0  0  0  0  0  0  0  0  0  0
    5.9938  -17.0306    8.9428 C   0  0  0  0  0  0  0  0  0  0  0  0
    7.2552  -17.3640    8.4748 C   0  0  0  0  0  0  0  0  0  0  0  0
    8.2295  -16.3225    8.6219 C   0  0  0  0  0  0  0  0  0  0  0  0
    7.6957  -15.2055    9.2088 C   0  0  0  0  0  0  0  0  0  0  0  0
    6.0428  -15.4438    9.5825 S   0  0  0  0  0  0  0  0  0  0  0  0
    2.7285  -18.8039    7.8500 N   0  0  0  0  0  0  0  0  0  0  0  0
    1.7329  -19.2805    6.8615 C   0  0  0  0  0  0  0  0  0  0  0  0
    0.4435  -20.0326    7.3917 C   0  0  0  0  0  0  0  0  0  0  0  0
   -0.5054  -20.3331    6.2932 N   0  0  0  0  0  0  0  0  0  0  0  0
   -1.4735  -21.2677    6.4093 C   0  0  0  0  0  0  0  0  0  0  0  0
   -1.6819  -22.1628    7.3485 N   0  0  0  0  0  0  0  0  0  0  0  0
   -2.7986  -22.8456    6.9340 C   0  0  0  0  0  0  0  0  0  0  0  0
   -3.5304  -23.8845    7.5296 C   0  0  0  0  0  0  0  0  0  0  0  0
   -4.6510  -24.3914    6.8531 C   0  0  0  0  0  0  0  0  0  0  0  0
   -5.0278  -23.8816    5.6052 C   0  0  0  0  0  0  0  0  0  0  0  0
   -4.3066  -22.8436    4.9946 C   0  0  0  0  0  0  0  0  0  0  0  0
   -3.2124  -22.3573    5.7080 C   0  0  0  0  0  0  0  0  0  0  0  0
   -2.3816  -21.3225    5.3757 O   0  0  0  0  0  0  0  0  0  0  0  0
   -0.2609  -19.2899    8.5137 C   0  0  0  0  0  0  0  0  0  0  0  0
   -1.4521  -18.3830    8.2679 C   0  0  0  0  0  0  0  0  0  0  0  0
   -0.1598  -17.7953    8.7366 C   0  0  0  0  0  0  0  0  0  0  0  0
    3.9210  -17.2728    9.5195 H   0  0  0  0  0  0  0  0  0  0  0  0
    4.9077  -18.7357    9.6814 H   0  0  0  0  0  0  0  0  0  0  0  0
    7.4697  -18.3241    8.0178 H   0  0  0  0  0  0  0  0  0  0  0  0
    9.2561  -16.3883    8.2836 H   0  0  0  0  0  0  0  0  0  0  0  0
    8.1856  -14.2599    9.4006 H   0  0  0  0  0  0  0  0  0  0  0  0
    2.4176  -18.5384    8.7782 H   0  0  0  0  0  0  0  0  0  0  0  0
    1.4303  -18.3924    6.2938 H   0  0  0  0  0  0  0  0  0  0  0  0
    2.2669  -19.9235    6.1521 H   0  0  0  0  0  0  0  0  0  0  0  0
    0.8040  -20.9836    7.8072 H   0  0  0  0  0  0  0  0  0  0  0  0
   -0.6619  -19.5795    5.6350 H   0  0  0  0  0  0  0  0  0  0  0  0
   -3.2310  -24.2766    8.4959 H   0  0  0  0  0  0  0  0  0  0  0  0
   -5.2200  -25.2013    7.3044 H   0  0  0  0  0  0  0  0  0  0  0  0
   -5.8917  -24.3020    5.0937 H   0  0  0  0  0  0  0  0  0  0  0  0
   -4.5841  -22.4320    4.0326 H   0  0  0  0  0  0  0  0  0  0  0  0
   -0.3118  -19.9156    9.4015 H   0  0  0  0  0  0  0  0  0  0  0  0
   -2.2761  -18.4484    8.9708 H   0  0  0  0  0  0  0  0  0  0  0  0
   -1.7593  -18.1741    7.2519 H   0  0  0  0  0  0  0  0  0  0  0  0
    0.3893  -17.1869    8.0298 H   0  0  0  0  0  0  0  0  0  0  0  0
   -0.1108  -17.4418    9.7615 H   0  0  0  0  0  0  0  0  0  0  0  0
  1  2  2  0
  2  3  1  0
  3  4  1  0
  4  5  2  0
  5  6  1  0
  6  7  2  0
  7  8  1  0
  2  9  1  0
  9 10  1  0
 10 11  1  0
 11 12  1  0
 12 13  1  0
 13 14  2  0
 14 15  1  0
 15 16  2  0
 16 17  1  0
 17 18  2  0
 18 19  1  0
 19 20  2  0
 20 21  1  0
 11 22  1  0
 22 23  1  0
 23 24  1  0
  8  4  1  0
 21 13  1  0
 24 22  1  0
 20 15  1  0
  3 25  1  0
  3 26  1  0
  5 27  1  0
  6 28  1  0
  7 29  1  0
  9 30  1  0
 10 31  1  0
 10 32  1  0
 11 33  1  0
 12 34  1  0
 16 35  1  0
 17 36  1  0
 18 37  1  0
 19 38  1  0
 22 39  1  0
 23 40  1  0
 23 41  1  0
 24 42  1  0
 24 43  1  0
M  END
>  <Energy>  (70) 
31.846581749573787

>  <compound_id>  (70) 
11133

>  <target_id>  (70) 
1

>  <reference_id>  (70) 
66

>  <inspiration_ids>  (70) 
[2, 66]

>  <energy_score>  (70) 
-47.27240599575396

>  <distance_score>  (70) 
14.071548253274532

>  <path>  (70) 
/opt/xchem-fragalysis-2/maxwin/BulkDock/SCRATCH/511014/C11133-P66/C11133-P66.minimised.mol

>  <scratch_subdir>  (70) 
/opt/xchem-fragalysis-2/maxwin/BulkDock/SCRATCH/511014/C11133-P66

>  <fragmenstein_runtime>  (70) 
47.56389284133911

>  <fragmenstein_outcome>  (70) 
too moved

>  <fragmenstein_mode>  (70) 
expansion

>  <fragmenstein_error>  (70) 


$$$$
C11134-P2
     RDKit          3D

 37 40  0  0  0  0  0  0  0  0999 V2000
    8.8018   -5.5150   14.3384 O   0  0  0  0  0  0  0  0  0  0  0  0
    8.1688   -4.5611   15.6076 C   0  0  0  0  0  0  0  0  0  0  0  0
    6.8375   -6.3206   15.4357 C   0  0  0  0  0  0  0  0  0  0  0  0
    5.9123   -7.5456   13.9868 N   0  0  0  0  0  0  0  0  0  0  0  0
    4.3898   -8.4140   13.3190 C   0  0  0  0  0  0  0  0  0  0  0  0
    3.9489   -9.9690   13.1683 N   0  0  0  0  0  0  0  0  0  0  0  0
    2.8226  -10.4411   11.6855 C   0  0  0  0  0  0  0  0  0  0  0  0
    1.5933  -11.3070   11.3633 C   0  0  0  0  0  0  0  0  0  0  0  0
    1.4026  -11.9245   10.1358 C   0  0  0  0  0  0  0  0  0  0  0  0
    2.4211  -11.7460    9.2538 C   0  0  0  0  0  0  0  0  0  0  0  0
    3.3818  -10.7423    9.5283 C   0  0  0  0  0  0  0  0  0  0  0  0
    3.2509   -9.8277   10.6666 C   0  0  0  0  0  0  0  0  0  0  0  0
    3.5534   -8.2896   11.6220 O   0  0  0  0  0  0  0  0  0  0  0  0
    9.8447   -3.6134   15.1330 C   0  0  0  0  0  0  0  0  0  0  0  0
   10.9818   -3.7372   14.3165 C   0  0  0  0  0  0  0  0  0  0  0  0
   11.9569   -2.6854   14.2659 C   0  0  0  0  0  0  0  0  0  0  0  0
   11.6699   -1.6332   15.0694 C   0  0  0  0  0  0  0  0  0  0  0  0
   10.0958   -1.7319   15.6372 S   0  0  0  0  0  0  0  0  0  0  0  0
    7.4585   -3.0110   14.7297 C   0  0  0  0  0  0  0  0  0  0  0  0
    7.1588   -1.5854   15.1197 C   0  0  0  0  0  0  0  0  0  0  0  0
    6.0825   -2.3994   14.4467 C   0  0  0  0  0  0  0  0  0  0  0  0
    8.8536   -6.3146   14.9098 H   0  0  0  0  0  0  0  0  0  0  0  0
    7.5710   -7.0534   15.3277 H   0  0  0  0  0  0  0  0  0  0  0  0
    6.2263   -6.3731   16.3429 H   0  0  0  0  0  0  0  0  0  0  0  0
    6.6977   -8.1922   13.8003 H   0  0  0  0  0  0  0  0  0  0  0  0
    0.9249  -11.6396   12.1444 H   0  0  0  0  0  0  0  0  0  0  0  0
    0.5948  -12.6243    9.9638 H   0  0  0  0  0  0  0  0  0  0  0  0
    2.4807  -12.3169    8.3320 H   0  0  0  0  0  0  0  0  0  0  0  0
    4.1716  -10.6420    8.7763 H   0  0  0  0  0  0  0  0  0  0  0  0
   11.0813   -4.5204   13.5989 H   0  0  0  0  0  0  0  0  0  0  0  0
   12.8148   -2.6763   13.6092 H   0  0  0  0  0  0  0  0  0  0  0  0
   12.2518   -0.7322   15.2006 H   0  0  0  0  0  0  0  0  0  0  0  0
    8.0712   -2.8907   13.8502 H   0  0  0  0  0  0  0  0  0  0  0  0
    7.6992   -0.8667   14.5011 H   0  0  0  0  0  0  0  0  0  0  0  0
    6.9079   -1.1314   16.0558 H   0  0  0  0  0  0  0  0  0  0  0  0
    5.1803   -2.6835   14.9644 H   0  0  0  0  0  0  0  0  0  0  0  0
    5.8480   -2.0832   13.4318 H   0  0  0  0  0  0  0  0  0  0  0  0
  1  2  1  0
  2  3  1  0
  3  4  1  0
  4  5  1  0
  5  6  2  0
  6  7  1  0
  7  8  2  0
  8  9  1  0
  9 10  2  0
 10 11  1  0
 11 12  2  0
 12 13  1  0
  2 14  1  0
 14 15  2  0
 15 16  1  0
 16 17  2  0
 17 18  1  0
  2 19  1  0
 19 20  1  0
 20 21  1  0
 13  5  1  0
 18 14  1  0
 21 19  1  0
 12  7  1  0
  1 22  1  0
  3 23  1  0
  3 24  1  0
  4 25  1  0
  8 26  1  0
  9 27  1  0
 10 28  1  0
 11 29  1  0
 15 30  1  0
 16 31  1  0
 17 32  1  0
 19 33  1  0
 20 34  1  0
 20 35  1  0
 21 36  1  0
 21 37  1  0
M  END
>  <Energy>  (71) 
1083.9182163371595

>  <compound_id>  (71) 
11134

>  <target_id>  (71) 
1

>  <reference_id>  (71) 
2

>  <inspiration_ids>  (71) 
[2, 66]

>  <energy_score>  (71) 
993.3081858122399

>  <distance_score>  (71) 
13.574931990273695

>  <path>  (71) 
/opt/xchem-fragalysis-2/maxwin/BulkDock/SCRATCH/511014/C11134-P2/C11134-P2.minimised.mol

>  <scratch_subdir>  (71) 
/opt/xchem-fragalysis-2/maxwin/BulkDock/SCRATCH/511014/C11134-P2

>  <fragmenstein_runtime>  (71) 
9.660686492919922

>  <fragmenstein_outcome>  (71) 
too moved

>  <fragmenstein_mode>  (71) 
expansion

>  <fragmenstein_error>  (71) 


$$$$
C11134-P66
     RDKit          3D

 37 40  0  0  0  0  0  0  0  0999 V2000
    7.8184   -7.0444   15.2462 O   0  0  0  0  0  0  0  0  0  0  0  0
    6.8858   -6.0613   15.6229 C   0  0  0  0  0  0  0  0  0  0  0  0
    6.0262   -7.3382   14.1042 C   0  0  0  0  0  0  0  0  0  0  0  0
    4.3562   -7.8859   13.2685 N   0  0  0  0  0  0  0  0  0  0  0  0
    3.4191   -8.0414   11.7220 C   0  0  0  0  0  0  0  0  0  0  0  0
    2.1013   -7.5209   11.3547 N   0  0  0  0  0  0  0  0  0  0  0  0
    0.9896   -8.6816   10.8759 C   0  0  0  0  0  0  0  0  0  0  0  0
   -0.4045   -8.6875   10.6273 C   0  0  0  0  0  0  0  0  0  0  0  0
   -1.0559   -9.9134   10.3186 C   0  0  0  0  0  0  0  0  0  0  0  0
   -0.3574  -11.1266   10.2353 C   0  0  0  0  0  0  0  0  0  0  0  0
    1.0241  -11.1704   10.4594 C   0  0  0  0  0  0  0  0  0  0  0  0
    1.6373   -9.9473   10.7853 C   0  0  0  0  0  0  0  0  0  0  0  0
    3.0769   -9.7016   11.1690 O   0  0  0  0  0  0  0  0  0  0  0  0
    8.1747   -4.3645   15.6018 C   0  0  0  0  0  0  0  0  0  0  0  0
    7.8244   -2.8866   15.0072 C   0  0  0  0  0  0  0  0  0  0  0  0
    8.7977   -1.8717   14.9253 C   0  0  0  0  0  0  0  0  0  0  0  0
   10.0948   -2.2719   15.0838 C   0  0  0  0  0  0  0  0  0  0  0  0
   10.3118   -3.9504   15.1103 S   0  0  0  0  0  0  0  0  0  0  0  0
    5.7250   -6.2135   16.9395 C   0  0  0  0  0  0  0  0  0  0  0  0
    5.6856   -6.6396   18.4195 C   0  0  0  0  0  0  0  0  0  0  0  0
    5.1710   -5.3409   18.1244 C   0  0  0  0  0  0  0  0  0  0  0  0
    8.6444   -6.6353   15.0374 H   0  0  0  0  0  0  0  0  0  0  0  0
    6.3964   -8.2766   14.3228 H   0  0  0  0  0  0  0  0  0  0  0  0
    6.6149   -7.4070   13.1633 H   0  0  0  0  0  0  0  0  0  0  0  0
    4.2424   -8.8498   13.5932 H   0  0  0  0  0  0  0  0  0  0  0  0
   -0.9857   -7.7797   10.7066 H   0  0  0  0  0  0  0  0  0  0  0  0
   -2.1303   -9.9038   10.1416 H   0  0  0  0  0  0  0  0  0  0  0  0
   -0.8911  -12.0424    9.9919 H   0  0  0  0  0  0  0  0  0  0  0  0
    1.5963  -12.0877   10.4153 H   0  0  0  0  0  0  0  0  0  0  0  0
    6.8037   -2.6740   14.6869 H   0  0  0  0  0  0  0  0  0  0  0  0
    8.5488   -0.8827   14.5575 H   0  0  0  0  0  0  0  0  0  0  0  0
   10.9702   -1.6499   14.9576 H   0  0  0  0  0  0  0  0  0  0  0  0
    4.7913   -6.4420   16.4331 H   0  0  0  0  0  0  0  0  0  0  0  0
    6.5485   -6.6525   19.0742 H   0  0  0  0  0  0  0  0  0  0  0  0
    4.9064   -7.3149   18.7809 H   0  0  0  0  0  0  0  0  0  0  0  0
    4.0884   -5.1991   18.1489 H   0  0  0  0  0  0  0  0  0  0  0  0
    5.6309   -4.7557   18.9138 H   0  0  0  0  0  0  0  0  0  0  0  0
  1  2  1  0
  2  3  1  0
  3  4  1  0
  4  5  1  0
  5  6  2  0
  6  7  1  0
  7  8  2  0
  8  9  1  0
  9 10  2  0
 10 11  1  0
 11 12  2  0
 12 13  1  0
  2 14  1  0
 14 15  2  0
 15 16  1  0
 16 17  2  0
 17 18  1  0
  2 19  1  0
 19 20  1  0
 20 21  1  0
 13  5  1  0
 18 14  1  0
 21 19  1  0
 12  7  1  0
  1 22  1  0
  3 23  1  0
  3 24  1  0
  4 25  1  0
  8 26  1  0
  9 27  1  0
 10 28  1  0
 11 29  1  0
 15 30  1  0
 16 31  1  0
 17 32  1  0
 19 33  1  0
 20 34  1  0
 20 35  1  0
 21 36  1  0
 21 37  1  0
M  END
>  <Energy>  (72) 
746.95990381259685

>  <compound_id>  (72) 
11134

>  <target_id>  (72) 
1

>  <reference_id>  (72) 
66

>  <inspiration_ids>  (72) 
[2, 66]

>  <energy_score>  (72) 
656.3498732876802

>  <distance_score>  (72) 
13.300195653198301

>  <path>  (72) 
/opt/xchem-fragalysis-2/maxwin/BulkDock/SCRATCH/511014/C11134-P66/C11134-P66.minimised.mol

>  <scratch_subdir>  (72) 
/opt/xchem-fragalysis-2/maxwin/BulkDock/SCRATCH/511014/C11134-P66

>  <fragmenstein_runtime>  (72) 
9.46678113937378

>  <fragmenstein_outcome>  (72) 
too moved

>  <fragmenstein_mode>  (72) 
expansion

>  <fragmenstein_error>  (72) 


$$$$
C11136-P2
     RDKit          3D

 43 46  0  0  0  0  0  0  0  0999 V2000
    3.7217   -7.5212   12.6909 O   0  0  0  0  0  0  0  0  0  0  0  0
    4.3083   -8.5105   13.1554 C   0  0  0  0  0  0  0  0  0  0  0  0
    3.6963  -10.3034   12.9003 N   0  0  0  0  0  0  0  0  0  0  0  0
    2.1182  -11.0827   11.7453 C   0  0  0  0  0  0  0  0  0  0  0  0
    0.4891  -12.5492   11.6249 C   0  0  0  0  0  0  0  0  0  0  0  0
   -0.3818  -14.2997   10.9701 N   0  0  0  0  0  0  0  0  0  0  0  0
   -1.9787  -15.3478   10.1959 C   0  0  0  0  0  0  0  0  0  0  0  0
   -2.9949  -16.7580    9.0203 C   0  0  0  0  0  0  0  0  0  0  0  0
   -3.8112  -18.1098    9.0871 N   0  0  0  0  0  0  0  0  0  0  0  0
   -5.8116  -18.3411    9.0282 C   0  0  0  0  0  0  0  0  0  0  0  0
   -7.0033  -19.3656    9.7969 C   0  0  0  0  0  0  0  0  0  0  0  0
   -8.1586  -19.9223    9.2030 C   0  0  0  0  0  0  0  0  0  0  0  0
   -8.6100  -19.0924    8.2197 C   0  0  0  0  0  0  0  0  0  0  0  0
   -7.7628  -17.8259    7.8999 C   0  0  0  0  0  0  0  0  0  0  0  0
   -6.2858  -17.4711    8.3167 C   0  0  0  0  0  0  0  0  0  0  0  0
   -4.5287  -16.6809    8.0715 O   0  0  0  0  0  0  0  0  0  0  0  0
    2.9000  -11.7603   10.5560 C   0  0  0  0  0  0  0  0  0  0  0  0
    3.6714  -12.8155    9.8394 C   0  0  0  0  0  0  0  0  0  0  0  0
    3.4527  -11.4080    9.2192 C   0  0  0  0  0  0  0  0  0  0  0  0
    5.8588   -7.9850   13.9259 C   0  0  0  0  0  0  0  0  0  0  0  0
    6.3678   -7.0332   15.1711 C   0  0  0  0  0  0  0  0  0  0  0  0
    7.5008   -6.4926   15.4605 C   0  0  0  0  0  0  0  0  0  0  0  0
    8.2846   -7.2053   14.6362 C   0  0  0  0  0  0  0  0  0  0  0  0
    7.2055   -7.7527   12.7603 S   0  0  0  0  0  0  0  0  0  0  0  0
    4.2855  -10.9334   13.4399 H   0  0  0  0  0  0  0  0  0  0  0  0
    1.6878  -10.2358   11.1972 H   0  0  0  0  0  0  0  0  0  0  0  0
    0.1877  -12.6729   12.6779 H   0  0  0  0  0  0  0  0  0  0  0  0
   -0.2667  -11.8642   11.2331 H   0  0  0  0  0  0  0  0  0  0  0  0
   -0.1941  -14.8878   11.7900 H   0  0  0  0  0  0  0  0  0  0  0  0
   -1.5638  -16.2164   10.7408 H   0  0  0  0  0  0  0  0  0  0  0  0
   -2.7640  -14.9574   10.8381 H   0  0  0  0  0  0  0  0  0  0  0  0
   -6.6746  -19.8087   10.7510 H   0  0  0  0  0  0  0  0  0  0  0  0
   -8.6850  -20.7731    9.6033 H   0  0  0  0  0  0  0  0  0  0  0  0
   -9.4856  -19.3173    7.6244 H   0  0  0  0  0  0  0  0  0  0  0  0
   -8.0515  -17.7912    6.8717 H   0  0  0  0  0  0  0  0  0  0  0  0
    2.0965  -12.4539   10.5426 H   0  0  0  0  0  0  0  0  0  0  0  0
    4.5066  -13.2796   10.3205 H   0  0  0  0  0  0  0  0  0  0  0  0
    3.2082  -13.6470    9.3298 H   0  0  0  0  0  0  0  0  0  0  0  0
    2.8711  -11.3818    8.3142 H   0  0  0  0  0  0  0  0  0  0  0  0
    4.2296  -10.6762    9.0989 H   0  0  0  0  0  0  0  0  0  0  0  0
    5.7344   -6.5578   15.9823 H   0  0  0  0  0  0  0  0  0  0  0  0
    7.4299   -5.8514   16.2984 H   0  0  0  0  0  0  0  0  0  0  0  0
    9.2961   -7.5410   14.8058 H   0  0  0  0  0  0  0  0  0  0  0  0
  1  2  2  0
  2  3  1  0
  3  4  1  0
  4  5  1  0
  5  6  1  0
  6  7  1  0
  7  8  1  0
  8  9  2  0
  9 10  1  0
 10 11  2  0
 11 12  1  0
 12 13  2  0
 13 14  1  0
 14 15  2  0
 15 16  1  0
  4 17  1  0
 17 18  1  0
 18 19  1  0
  2 20  1  0
 20 21  2  0
 21 22  1  0
 22 23  2  0
 23 24  1  0
 16  8  1  0
 19 17  1  0
 24 20  1  0
 15 10  1  0
  3 25  1  0
  4 26  1  0
  5 27  1  0
  5 28  1  0
  6 29  1  0
  7 30  1  0
  7 31  1  0
 11 32  1  0
 12 33  1  0
 13 34  1  0
 14 35  1  0
 17 36  1  0
 18 37  1  0
 18 38  1  0
 19 39  1  0
 19 40  1  0
 21 41  1  0
 22 42  1  0
 23 43  1  0
M  END
>  <Energy>  (73) 
1634.6947998076639

>  <compound_id>  (73) 
11136

>  <target_id>  (73) 
1

>  <reference_id>  (73) 
2

>  <inspiration_ids>  (73) 
[2, 66]

>  <energy_score>  (73) 
1507.255627286081

>  <distance_score>  (73) 
8.773897501186546

>  <path>  (73) 
/opt/xchem-fragalysis-2/maxwin/BulkDock/SCRATCH/511014/C11136-P2/C11136-P2.minimised.mol

>  <scratch_subdir>  (73) 
/opt/xchem-fragalysis-2/maxwin/BulkDock/SCRATCH/511014/C11136-P2

>  <fragmenstein_runtime>  (73) 
16.2508385181427

>  <fragmenstein_outcome>  (73) 
too moved

>  <fragmenstein_mode>  (73) 
expansion

>  <fragmenstein_error>  (73) 


$$$$
C11136-P66
     RDKit          3D

 43 46  0  0  0  0  0  0  0  0999 V2000
    5.3353   -7.4964   13.2948 O   0  0  0  0  0  0  0  0  0  0  0  0
    5.8788   -8.3726   13.8945 C   0  0  0  0  0  0  0  0  0  0  0  0
    5.1136  -10.2177   13.4396 N   0  0  0  0  0  0  0  0  0  0  0  0
    3.7175  -10.8434   12.0072 C   0  0  0  0  0  0  0  0  0  0  0  0
    3.4474  -11.1318   10.2121 C   0  0  0  0  0  0  0  0  0  0  0  0
    3.2701  -12.6031    9.1315 N   0  0  0  0  0  0  0  0  0  0  0  0
    3.2239  -14.5120    9.1536 C   0  0  0  0  0  0  0  0  0  0  0  0
    2.1603  -15.7904    9.3836 C   0  0  0  0  0  0  0  0  0  0  0  0
    2.1123  -16.8260    8.5446 N   0  0  0  0  0  0  0  0  0  0  0  0
    0.9331  -17.4656    8.8312 C   0  0  0  0  0  0  0  0  0  0  0  0
    0.2924  -18.5372    8.1927 C   0  0  0  0  0  0  0  0  0  0  0  0
   -0.9622  -18.9282    8.6609 C   0  0  0  0  0  0  0  0  0  0  0  0
   -1.5394  -18.2822    9.7554 C   0  0  0  0  0  0  0  0  0  0  0  0
   -0.9096  -17.2180   10.4152 C   0  0  0  0  0  0  0  0  0  0  0  0
    0.3210  -16.8402    9.9023 C   0  0  0  0  0  0  0  0  0  0  0  0
    1.0990  -15.7614   10.2691 O   0  0  0  0  0  0  0  0  0  0  0  0
    4.2467  -12.7232   11.2073 C   0  0  0  0  0  0  0  0  0  0  0  0
    5.1674  -13.8924   10.1238 C   0  0  0  0  0  0  0  0  0  0  0  0
    5.6887  -13.9577   11.4360 C   0  0  0  0  0  0  0  0  0  0  0  0
    7.4228   -7.5937   14.8957 C   0  0  0  0  0  0  0  0  0  0  0  0
    9.3461   -7.8349   15.2342 C   0  0  0  0  0  0  0  0  0  0  0  0
   10.8708   -6.5358   15.5439 C   0  0  0  0  0  0  0  0  0  0  0  0
   10.4860   -5.2190   14.7314 C   0  0  0  0  0  0  0  0  0  0  0  0
    9.4379   -7.3318   14.9207 S   0  0  0  0  0  0  0  0  0  0  0  0
    5.6731  -10.9208   13.9163 H   0  0  0  0  0  0  0  0  0  0  0  0
    2.7073  -10.9755   12.3824 H   0  0  0  0  0  0  0  0  0  0  0  0
    2.5026  -10.6246   10.2912 H   0  0  0  0  0  0  0  0  0  0  0  0
    4.0925  -10.4907    9.6323 H   0  0  0  0  0  0  0  0  0  0  0  0
    4.0166  -12.4275    8.4651 H   0  0  0  0  0  0  0  0  0  0  0  0
    4.0929  -14.9535    8.6609 H   0  0  0  0  0  0  0  0  0  0  0  0
    2.6518  -14.5754    8.2120 H   0  0  0  0  0  0  0  0  0  0  0  0
    0.7559  -19.0280    7.3445 H   0  0  0  0  0  0  0  0  0  0  0  0
   -1.4859  -19.7489    8.1763 H   0  0  0  0  0  0  0  0  0  0  0  0
   -2.5043  -18.6326   10.0979 H   0  0  0  0  0  0  0  0  0  0  0  0
   -1.3506  -16.6921   11.2483 H   0  0  0  0  0  0  0  0  0  0  0  0
    3.2334  -12.9788   10.9905 H   0  0  0  0  0  0  0  0  0  0  0  0
    5.2455  -14.9649    9.8984 H   0  0  0  0  0  0  0  0  0  0  0  0
    5.5417  -13.4928    9.2051 H   0  0  0  0  0  0  0  0  0  0  0  0
    5.6438  -14.9277   11.8463 H   0  0  0  0  0  0  0  0  0  0  0  0
    6.7479  -13.7879   11.6523 H   0  0  0  0  0  0  0  0  0  0  0  0
    9.7991   -9.1530   15.4390 H   0  0  0  0  0  0  0  0  0  0  0  0
   11.8651   -6.7383   15.9947 H   0  0  0  0  0  0  0  0  0  0  0  0
    9.8955   -4.3273   14.9751 H   0  0  0  0  0  0  0  0  0  0  0  0
  1  2  2  0
  2  3  1  0
  3  4  1  0
  4  5  1  0
  5  6  1  0
  6  7  1  0
  7  8  1  0
  8  9  2  0
  9 10  1  0
 10 11  2  0
 11 12  1  0
 12 13  2  0
 13 14  1  0
 14 15  2  0
 15 16  1  0
  4 17  1  0
 17 18  1  0
 18 19  1  0
  2 20  1  0
 20 21  2  0
 21 22  1  0
 22 23  2  0
 23 24  1  0
 16  8  1  0
 19 17  1  0
 24 20  1  0
 15 10  1  0
  3 25  1  0
  4 26  1  0
  5 27  1  0
  5 28  1  0
  6 29  1  0
  7 30  1  0
  7 31  1  0
 11 32  1  0
 12 33  1  0
 13 34  1  0
 14 35  1  0
 17 36  1  0
 18 37  1  0
 18 38  1  0
 19 39  1  0
 19 40  1  0
 21 41  1  0
 22 42  1  0
 23 43  1  0
M  END
>  <Energy>  (74) 
1725.1380575174312

>  <compound_id>  (74) 
11136

>  <target_id>  (74) 
1

>  <reference_id>  (74) 
66

>  <inspiration_ids>  (74) 
[2, 66]

>  <energy_score>  (74) 
1597.6988849958507

>  <distance_score>  (74) 
10.48102328154219

>  <path>  (74) 
/opt/xchem-fragalysis-2/maxwin/BulkDock/SCRATCH/511014/C11136-P66/C11136-P66.minimised.mol

>  <scratch_subdir>  (74) 
/opt/xchem-fragalysis-2/maxwin/BulkDock/SCRATCH/511014/C11136-P66

>  <fragmenstein_runtime>  (74) 
16.110479593276978

>  <fragmenstein_outcome>  (74) 
too moved

>  <fragmenstein_mode>  (74) 
expansion

>  <fragmenstein_error>  (74) 


$$$$
C11138-P2
     RDKit          3D

 31 33  0  0  0  0  0  0  0  0999 V2000
   -1.1902  -17.4680    9.3170 N   0  0  0  0  0  0  0  0  0  0  0  0
   -1.6865  -16.4647    9.6271 C   0  0  0  0  0  0  0  0  0  0  0  0
   -2.2866  -15.0853    9.8553 C   0  0  0  0  0  0  0  0  0  0  0  0
   -0.6986  -14.1518   10.8138 C   0  0  0  0  0  0  0  0  0  0  0  0
   -0.1117  -15.0372   11.5104 O   0  0  0  0  0  0  0  0  0  0  0  0
    0.4529  -12.5569   11.3337 C   0  0  0  0  0  0  0  0  0  0  0  0
    1.8980  -11.6958   11.1600 C   0  0  0  0  0  0  0  0  0  0  0  0
    3.1178  -10.6016   12.0026 C   0  0  0  0  0  0  0  0  0  0  0  0
    4.6524  -10.7307   13.0770 C   0  0  0  0  0  0  0  0  0  0  0  0
    5.0553   -9.6190   13.9305 C   0  0  0  0  0  0  0  0  0  0  0  0
    4.2216   -8.5881   13.5319 C   0  0  0  0  0  0  0  0  0  0  0  0
    3.7790  -10.4707   14.0873 S   0  0  0  0  0  0  0  0  0  0  0  0
   -3.8925  -15.2944    8.6173 C   0  0  0  0  0  0  0  0  0  0  0  0
   -5.5184  -14.9433    8.8316 N   0  0  0  0  0  0  0  0  0  0  0  0
   -6.8838  -16.3050    8.7588 C   0  0  0  0  0  0  0  0  0  0  0  0
   -7.9274  -17.4752    8.0221 C   0  0  0  0  0  0  0  0  0  0  0  0
   -8.6993  -18.8626    8.0815 C   0  0  0  0  0  0  0  0  0  0  0  0
   -8.1394  -19.7212    8.9348 C   0  0  0  0  0  0  0  0  0  0  0  0
   -6.9610  -19.0542    9.3566 C   0  0  0  0  0  0  0  0  0  0  0  0
   -6.1115  -17.6848    8.7081 C   0  0  0  0  0  0  0  0  0  0  0  0
   -4.3710  -17.0403    8.3305 O   0  0  0  0  0  0  0  0  0  0  0  0
   -2.8549  -15.2053   10.7789 H   0  0  0  0  0  0  0  0  0  0  0  0
    0.1348  -12.3250   12.3456 H   0  0  0  0  0  0  0  0  0  0  0  0
    2.5756  -12.1621   10.4229 H   0  0  0  0  0  0  0  0  0  0  0  0
    5.4050  -11.5418   12.9780 H   0  0  0  0  0  0  0  0  0  0  0  0
    5.9763   -9.0322   14.0120 H   0  0  0  0  0  0  0  0  0  0  0  0
    4.3641   -7.5601   13.8352 H   0  0  0  0  0  0  0  0  0  0  0  0
   -7.8276  -17.6652    6.9809 H   0  0  0  0  0  0  0  0  0  0  0  0
   -9.4053  -19.1728    7.3237 H   0  0  0  0  0  0  0  0  0  0  0  0
   -8.4966  -20.6677    9.2925 H   0  0  0  0  0  0  0  0  0  0  0  0
   -6.6862  -19.3818   10.3862 H   0  0  0  0  0  0  0  0  0  0  0  0
  1  2  3  0
  2  3  1  0
  3  4  1  0
  4  5  2  0
  4  6  1  0
  6  7  2  3
  7  8  1  0
  8  9  2  0
  9 10  1  0
 10 11  2  0
 11 12  1  0
  3 13  1  0
 13 14  2  0
 14 15  1  0
 15 16  2  0
 16 17  1  0
 17 18  2  0
 18 19  1  0
 19 20  2  0
 20 21  1  0
 12  8  1  0
 21 13  1  0
 20 15  1  0
  3 22  1  0
  6 23  1  0
  7 24  1  0
  9 25  1  0
 10 26  1  0
 11 27  1  0
 16 28  1  0
 17 29  1  0
 18 30  1  0
 19 31  1  0
M  END
>  <Energy>  (75) 
1421.6728264333287

>  <compound_id>  (75) 
11138

>  <target_id>  (75) 
1

>  <reference_id>  (75) 
2

>  <inspiration_ids>  (75) 
[2, 66]

>  <energy_score>  (75) 
1338.0787490043786

>  <distance_score>  (75) 
11.219434453440186

>  <path>  (75) 
/opt/xchem-fragalysis-2/maxwin/BulkDock/SCRATCH/511014/C11138-P2/C11138-P2.minimised.mol

>  <scratch_subdir>  (75) 
/opt/xchem-fragalysis-2/maxwin/BulkDock/SCRATCH/511014/C11138-P2

>  <fragmenstein_runtime>  (75) 
8.779486656188965

>  <fragmenstein_outcome>  (75) 
too moved

>  <fragmenstein_mode>  (75) 
expansion

>  <fragmenstein_error>  (75) 


$$$$
C11138-P66
     RDKit          3D

 31 33  0  0  0  0  0  0  0  0999 V2000
   -0.7416  -18.2257   10.3435 N   0  0  0  0  0  0  0  0  0  0  0  0
   -1.3191  -17.2245   10.2161 C   0  0  0  0  0  0  0  0  0  0  0  0
   -2.1117  -15.9203    9.9511 C   0  0  0  0  0  0  0  0  0  0  0  0
   -0.4381  -14.9320   10.6111 C   0  0  0  0  0  0  0  0  0  0  0  0
    0.6044  -15.6426   10.5089 O   0  0  0  0  0  0  0  0  0  0  0  0
    0.3171  -13.1630   11.2259 C   0  0  0  0  0  0  0  0  0  0  0  0
    1.1567  -11.7837   11.7073 C   0  0  0  0  0  0  0  0  0  0  0  0
    2.8186  -10.9335   12.0229 C   0  0  0  0  0  0  0  0  0  0  0  0
    4.0801  -10.4045   13.0473 C   0  0  0  0  0  0  0  0  0  0  0  0
    4.1973   -8.8862   13.3483 C   0  0  0  0  0  0  0  0  0  0  0  0
    5.0565   -9.5591   13.9904 C   0  0  0  0  0  0  0  0  0  0  0  0
    3.9151  -10.7974   14.1387 S   0  0  0  0  0  0  0  0  0  0  0  0
   -3.2103  -17.2149    8.8558 C   0  0  0  0  0  0  0  0  0  0  0  0
   -3.9786  -18.4082    9.1504 N   0  0  0  0  0  0  0  0  0  0  0  0
   -5.9278  -18.3297    9.2990 C   0  0  0  0  0  0  0  0  0  0  0  0
   -7.0803  -19.4313   10.1452 C   0  0  0  0  0  0  0  0  0  0  0  0
   -8.3492  -20.1890    9.4659 C   0  0  0  0  0  0  0  0  0  0  0  0
   -8.7033  -19.5522    8.2665 C   0  0  0  0  0  0  0  0  0  0  0  0
   -7.7204  -18.2327    7.9572 C   0  0  0  0  0  0  0  0  0  0  0  0
   -6.4019  -17.4821    8.3551 C   0  0  0  0  0  0  0  0  0  0  0  0
   -4.6641  -16.7844    8.1091 O   0  0  0  0  0  0  0  0  0  0  0  0
   -1.9759  -15.4583    8.9668 H   0  0  0  0  0  0  0  0  0  0  0  0
    1.0514  -13.8588   11.6290 H   0  0  0  0  0  0  0  0  0  0  0  0
    0.4519  -10.9728   11.6823 H   0  0  0  0  0  0  0  0  0  0  0  0
    5.1545  -11.0232   12.6304 H   0  0  0  0  0  0  0  0  0  0  0  0
    4.1458   -7.9125   12.9028 H   0  0  0  0  0  0  0  0  0  0  0  0
    5.8604   -8.7952   14.1380 H   0  0  0  0  0  0  0  0  0  0  0  0
   -6.8223  -19.5485   11.2069 H   0  0  0  0  0  0  0  0  0  0  0  0
   -8.9072  -20.9281   10.0149 H   0  0  0  0  0  0  0  0  0  0  0  0
   -9.6330  -19.7252    7.7508 H   0  0  0  0  0  0  0  0  0  0  0  0
   -7.2078  -19.1430    8.2287 H   0  0  0  0  0  0  0  0  0  0  0  0
  1  2  3  0
  2  3  1  0
  3  4  1  0
  4  5  2  0
  4  6  1  0
  6  7  2  3
  7  8  1  0
  8  9  2  0
  9 10  1  0
 10 11  2  0
 11 12  1  0
  3 13  1  0
 13 14  2  0
 14 15  1  0
 15 16  2  0
 16 17  1  0
 17 18  2  0
 18 19  1  0
 19 20  2  0
 20 21  1  0
 12  8  1  0
 21 13  1  0
 20 15  1  0
  3 22  1  0
  6 23  1  0
  7 24  1  0
  9 25  1  0
 10 26  1  0
 11 27  1  0
 16 28  1  0
 17 29  1  0
 18 30  1  0
 19 31  1  0
M  END
>  <Energy>  (76) 
1545.2914028259368

>  <compound_id>  (76) 
11138

>  <target_id>  (76) 
1

>  <reference_id>  (76) 
66

>  <inspiration_ids>  (76) 
[2, 66]

>  <energy_score>  (76) 
1461.6973253969977

>  <distance_score>  (76) 
11.267553249568758

>  <path>  (76) 
/opt/xchem-fragalysis-2/maxwin/BulkDock/SCRATCH/511014/C11138-P66/C11138-P66.minimised.mol

>  <scratch_subdir>  (76) 
/opt/xchem-fragalysis-2/maxwin/BulkDock/SCRATCH/511014/C11138-P66

>  <fragmenstein_runtime>  (76) 
16.047237634658813

>  <fragmenstein_outcome>  (76) 
too moved

>  <fragmenstein_mode>  (76) 
expansion

>  <fragmenstein_error>  (76) 


$$$$
C11139-P2
     RDKit          3D

 35 37  0  0  0  0  0  0  0  0999 V2000
   -6.6869  -19.5595   11.9941 C   0  0  0  0  0  0  0  0  0  0  0  0
   -5.8442  -19.9628   10.8833 C   0  0  0  0  0  0  0  0  0  0  0  0
   -7.1173  -21.1348   10.0378 C   0  0  0  0  0  0  0  0  0  0  0  0
   -6.4618  -22.3364    8.7444 C   0  0  0  0  0  0  0  0  0  0  0  0
   -4.3145  -22.0598    8.3729 C   0  0  0  0  0  0  0  0  0  0  0  0
   -3.1185  -20.8395    9.3723 C   0  0  0  0  0  0  0  0  0  0  0  0
   -1.3440  -20.1505    9.6240 O   0  0  0  0  0  0  0  0  0  0  0  0
   -0.5195  -18.9062   10.8412 C   0  0  0  0  0  0  0  0  0  0  0  0
    1.1193  -17.9268   11.4206 N   0  0  0  0  0  0  0  0  0  0  0  0
    3.1157  -17.1461   11.7943 C   0  0  0  0  0  0  0  0  0  0  0  0
    4.6933  -15.7840   12.7538 C   0  0  0  0  0  0  0  0  0  0  0  0
    6.1314  -13.7028   13.4006 S   0  0  0  0  0  0  0  0  0  0  0  0
    5.0661  -12.9781   14.1258 O   0  0  0  0  0  0  0  0  0  0  0  0
    7.2406  -13.7675   14.3646 O   0  0  0  0  0  0  0  0  0  0  0  0
    5.5865  -11.5251   13.8917 C   0  0  0  0  0  0  0  0  0  0  0  0
    4.6980  -10.4019   13.8396 C   0  0  0  0  0  0  0  0  0  0  0  0
    5.0849   -9.1975   14.5969 C   0  0  0  0  0  0  0  0  0  0  0  0
    5.3523   -9.5346   15.8754 C   0  0  0  0  0  0  0  0  0  0  0  0
    5.0145  -11.1881   15.9939 S   0  0  0  0  0  0  0  0  0  0  0  0
   -2.1761  -19.0298   11.2366 N   0  0  0  0  0  0  0  0  0  0  0  0
   -3.8064  -19.9263   10.6627 C   0  0  0  0  0  0  0  0  0  0  0  0
   -7.6859  -19.4425   11.6156 H   0  0  0  0  0  0  0  0  0  0  0  0
   -6.9170  -20.5338   12.4044 H   0  0  0  0  0  0  0  0  0  0  0  0
   -6.3257  -18.7654   12.6264 H   0  0  0  0  0  0  0  0  0  0  0  0
   -8.1376  -21.2153   10.3915 H   0  0  0  0  0  0  0  0  0  0  0  0
   -7.1087  -23.1722    8.3798 H   0  0  0  0  0  0  0  0  0  0  0  0
   -3.7166  -22.7510    7.7391 H   0  0  0  0  0  0  0  0  0  0  0  0
    0.7988  -17.7335   12.3801 H   0  0  0  0  0  0  0  0  0  0  0  0
    3.4283  -17.1352   10.7365 H   0  0  0  0  0  0  0  0  0  0  0  0
    3.5043  -18.1004   12.1867 H   0  0  0  0  0  0  0  0  0  0  0  0
    5.1492  -16.5390   13.4564 H   0  0  0  0  0  0  0  0  0  0  0  0
    5.2229  -15.3943   11.8259 H   0  0  0  0  0  0  0  0  0  0  0  0
    3.9552  -10.3215   13.0992 H   0  0  0  0  0  0  0  0  0  0  0  0
    4.8736   -8.1728   14.3187 H   0  0  0  0  0  0  0  0  0  0  0  0
    5.4235   -8.8961   16.7413 H   0  0  0  0  0  0  0  0  0  0  0  0
  1  2  1  0
  2  3  2  0
  3  4  1  0
  4  5  2  0
  5  6  1  0
  6  7  1  0
  7  8  1  0
  8  9  1  0
  9 10  1  0
 10 11  1  0
 11 12  1  0
 12 13  2  0
 12 14  2  0
 12 15  1  0
 15 16  2  0
 16 17  1  0
 17 18  2  0
 18 19  1  0
  8 20  2  0
 20 21  1  0
 21  2  1  0
 21  6  2  0
 19 15  1  0
  1 22  1  0
  1 23  1  0
  1 24  1  0
  3 25  1  0
  4 26  1  0
  5 27  1  0
  9 28  1  0
 10 29  1  0
 10 30  1  0
 11 31  1  0
 11 32  1  0
 16 33  1  0
 17 34  1  0
 18 35  1  0
M  END
>  <Energy>  (77) 
2439.6660338468823

>  <compound_id>  (77) 
11139

>  <target_id>  (77) 
1

>  <reference_id>  (77) 
2

>  <inspiration_ids>  (77) 
[2, 66]

>  <energy_score>  (77) 
2383.9644115171027

>  <distance_score>  (77) 
10.774723621032958

>  <path>  (77) 
/opt/xchem-fragalysis-2/maxwin/BulkDock/SCRATCH/511014/C11139-P2/C11139-P2.minimised.mol

>  <scratch_subdir>  (77) 
/opt/xchem-fragalysis-2/maxwin/BulkDock/SCRATCH/511014/C11139-P2

>  <fragmenstein_runtime>  (77) 
9.026232719421387

>  <fragmenstein_outcome>  (77) 
too moved

>  <fragmenstein_mode>  (77) 
expansion

>  <fragmenstein_error>  (77) 


$$$$
C11139-P66
     RDKit          3D

 35 37  0  0  0  0  0  0  0  0999 V2000
   -0.4946  -14.1865   11.9748 C   0  0  0  0  0  0  0  0  0  0  0  0
   -0.9730  -12.7948   11.6912 C   0  0  0  0  0  0  0  0  0  0  0  0
   -2.3663  -12.5649   11.6407 C   0  0  0  0  0  0  0  0  0  0  0  0
   -2.8757  -11.2953   11.3675 C   0  0  0  0  0  0  0  0  0  0  0  0
   -2.0215  -10.2019   11.1357 C   0  0  0  0  0  0  0  0  0  0  0  0
   -0.6455  -10.4456   11.1703 C   0  0  0  0  0  0  0  0  0  0  0  0
    0.4112   -9.5602   10.9184 O   0  0  0  0  0  0  0  0  0  0  0  0
    1.6007  -10.3159   11.0648 C   0  0  0  0  0  0  0  0  0  0  0  0
    3.0041   -9.6861   11.1862 N   0  0  0  0  0  0  0  0  0  0  0  0
    3.5919   -7.9396   11.8553 C   0  0  0  0  0  0  0  0  0  0  0  0
    5.0659   -7.4062   13.2086 C   0  0  0  0  0  0  0  0  0  0  0  0
    7.2867   -7.0499   12.5831 S   0  0  0  0  0  0  0  0  0  0  0  0
    6.5788   -6.7987   11.2457 O   0  0  0  0  0  0  0  0  0  0  0  0
    8.2807   -7.7514   11.8753 O   0  0  0  0  0  0  0  0  0  0  0  0
    8.5842   -5.4422   14.1113 C   0  0  0  0  0  0  0  0  0  0  0  0
   10.2930   -4.7740   14.3659 C   0  0  0  0  0  0  0  0  0  0  0  0
   10.7569   -3.6696   15.1533 C   0  0  0  0  0  0  0  0  0  0  0  0
    9.8740   -2.6784   14.9217 C   0  0  0  0  0  0  0  0  0  0  0  0
    8.2457   -3.1327   14.5893 S   0  0  0  0  0  0  0  0  0  0  0  0
    1.2821  -11.5873   11.3201 N   0  0  0  0  0  0  0  0  0  0  0  0
   -0.1086  -11.6930   11.4299 C   0  0  0  0  0  0  0  0  0  0  0  0
   -0.7615  -14.8561   11.1518 H   0  0  0  0  0  0  0  0  0  0  0  0
    0.5851  -14.2137   12.1048 H   0  0  0  0  0  0  0  0  0  0  0  0
   -0.9482  -14.5614   12.8982 H   0  0  0  0  0  0  0  0  0  0  0  0
   -3.0564  -13.3876   11.8146 H   0  0  0  0  0  0  0  0  0  0  0  0
   -3.9524  -11.1438   11.3319 H   0  0  0  0  0  0  0  0  0  0  0  0
   -2.4062   -9.2139   10.9141 H   0  0  0  0  0  0  0  0  0  0  0  0
    3.6256  -10.0923   10.4873 H   0  0  0  0  0  0  0  0  0  0  0  0
    4.0117   -7.6815   10.9052 H   0  0  0  0  0  0  0  0  0  0  0  0
    2.7408   -7.2400   11.9624 H   0  0  0  0  0  0  0  0  0  0  0  0
    5.0858   -8.0847   14.0683 H   0  0  0  0  0  0  0  0  0  0  0  0
    4.6795   -6.4261   13.4656 H   0  0  0  0  0  0  0  0  0  0  0  0
   10.9141   -4.8761   13.4654 H   0  0  0  0  0  0  0  0  0  0  0  0
   11.8024   -3.4389   15.3238 H   0  0  0  0  0  0  0  0  0  0  0  0
   10.0739   -1.6233   15.0062 H   0  0  0  0  0  0  0  0  0  0  0  0
  1  2  1  0
  2  3  2  0
  3  4  1  0
  4  5  2  0
  5  6  1  0
  6  7  1  0
  7  8  1  0
  8  9  1  0
  9 10  1  0
 10 11  1  0
 11 12  1  0
 12 13  2  0
 12 14  2  0
 12 15  1  0
 15 16  2  0
 16 17  1  0
 17 18  2  0
 18 19  1  0
  8 20  2  0
 20 21  1  0
 21  2  1  0
 21  6  2  0
 19 15  1  0
  1 22  1  0
  1 23  1  0
  1 24  1  0
  3 25  1  0
  4 26  1  0
  5 27  1  0
  9 28  1  0
 10 29  1  0
 10 30  1  0
 11 31  1  0
 11 32  1  0
 16 33  1  0
 17 34  1  0
 18 35  1  0
M  END
>  <Energy>  (78) 
771.72464255717159

>  <compound_id>  (78) 
11139

>  <target_id>  (78) 
1

>  <reference_id>  (78) 
66

>  <inspiration_ids>  (78) 
[2, 66]

>  <energy_score>  (78) 
716.0230202273615

>  <distance_score>  (78) 
11.9731514532192

>  <path>  (78) 
/opt/xchem-fragalysis-2/maxwin/BulkDock/SCRATCH/511014/C11139-P66/C11139-P66.minimised.mol

>  <scratch_subdir>  (78) 
/opt/xchem-fragalysis-2/maxwin/BulkDock/SCRATCH/511014/C11139-P66

>  <fragmenstein_runtime>  (78) 
9.732286930084229

>  <fragmenstein_outcome>  (78) 
too moved

>  <fragmenstein_mode>  (78) 
expansion

>  <fragmenstein_error>  (78) 


$$$$
C11140-P2
     RDKit          3D

 38 40  0  0  0  0  0  0  0  0999 V2000
   -9.1401  -10.0186   12.1412 N   0  0  0  0  0  0  0  0  0  0  0  0
   -8.5920  -11.6012   12.0446 S   0  0  0  0  0  0  0  0  0  0  0  0
   -9.5448  -12.3749   12.8009 O   0  0  0  0  0  0  0  0  0  0  0  0
   -8.2794  -11.8469   10.6542 O   0  0  0  0  0  0  0  0  0  0  0  0
   -7.0654  -11.5330   12.9342 C   0  0  0  0  0  0  0  0  0  0  0  0
   -6.8512  -12.3190   14.0803 C   0  0  0  0  0  0  0  0  0  0  0  0
   -5.6938  -12.1563   14.8585 C   0  0  0  0  0  0  0  0  0  0  0  0
   -4.8671  -11.0966   14.4847 C   0  0  0  0  0  0  0  0  0  0  0  0
   -3.7988  -10.5561   15.1700 O   0  0  0  0  0  0  0  0  0  0  0  0
   -3.4430   -9.4339   14.4371 C   0  0  0  0  0  0  0  0  0  0  0  0
   -2.5171   -8.5625   14.9696 N   0  0  0  0  0  0  0  0  0  0  0  0
   -2.0402   -7.2163   14.4808 C   0  0  0  0  0  0  0  0  0  0  0  0
   -2.3094   -6.6314   13.5022 O   0  0  0  0  0  0  0  0  0  0  0  0
   -1.0515   -6.8314   15.6027 N   0  0  0  0  0  0  0  0  0  0  0  0
   -0.2555   -5.5967   15.8067 C   0  0  0  0  0  0  0  0  0  0  0  0
    1.0530   -5.6052   16.6696 C   0  0  0  0  0  0  0  0  0  0  0  0
    2.0567   -4.5548   16.2152 C   0  0  0  0  0  0  0  0  0  0  0  0
    1.9237   -3.1774   16.1736 C   0  0  0  0  0  0  0  0  0  0  0  0
    3.0216   -2.5321   15.5287 C   0  0  0  0  0  0  0  0  0  0  0  0
    3.9687   -3.4365   15.1144 C   0  0  0  0  0  0  0  0  0  0  0  0
    3.6100   -5.0135   15.6627 S   0  0  0  0  0  0  0  0  0  0  0  0
   -4.0995   -9.3408   13.2962 N   0  0  0  0  0  0  0  0  0  0  0  0
   -5.0479  -10.3298   13.3468 C   0  0  0  0  0  0  0  0  0  0  0  0
   -6.1302  -10.5843   12.5027 C   0  0  0  0  0  0  0  0  0  0  0  0
  -10.0071   -9.9882   12.6817 H   0  0  0  0  0  0  0  0  0  0  0  0
   -9.2294   -9.6093   11.2109 H   0  0  0  0  0  0  0  0  0  0  0  0
   -7.6056  -13.0356   14.4052 H   0  0  0  0  0  0  0  0  0  0  0  0
   -5.5210  -12.7251   15.7648 H   0  0  0  0  0  0  0  0  0  0  0  0
   -2.1549   -8.7300   15.8841 H   0  0  0  0  0  0  0  0  0  0  0  0
   -0.9886   -7.5848   16.2621 H   0  0  0  0  0  0  0  0  0  0  0  0
   -0.0357   -5.2303   14.7969 H   0  0  0  0  0  0  0  0  0  0  0  0
   -0.9525   -4.8676   16.2374 H   0  0  0  0  0  0  0  0  0  0  0  0
    1.4965   -6.6050   16.6774 H   0  0  0  0  0  0  0  0  0  0  0  0
    0.7799   -5.3991   17.7125 H   0  0  0  0  0  0  0  0  0  0  0  0
    1.0435   -2.6542   16.5288 H   0  0  0  0  0  0  0  0  0  0  0  0
    3.0893   -1.4676   15.3413 H   0  0  0  0  0  0  0  0  0  0  0  0
    4.8794   -3.2300   14.5685 H   0  0  0  0  0  0  0  0  0  0  0  0
   -6.2970   -9.9603   11.6307 H   0  0  0  0  0  0  0  0  0  0  0  0
  1  2  1  0
  2  3  2  0
  2  4  2  0
  2  5  1  0
  5  6  2  0
  6  7  1  0
  7  8  2  0
  8  9  1  0
  9 10  1  0
 10 11  1  0
 11 12  1  0
 12 13  2  0
 12 14  1  0
 14 15  1  0
 15 16  1  0
 16 17  1  0
 17 18  2  0
 18 19  1  0
 19 20  2  0
 20 21  1  0
 10 22  2  0
 22 23  1  0
 23 24  2  0
 24  5  1  0
 23  8  1  0
 21 17  1  0
  1 25  1  0
  1 26  1  0
  6 27  1  0
  7 28  1  0
 11 29  1  0
 14 30  1  0
 15 31  1  0
 15 32  1  0
 16 33  1  0
 16 34  1  0
 18 35  1  0
 19 36  1  0
 20 37  1  0
 24 38  1  0
M  END
>  <Energy>  (79) 
-122.31374536749284

>  <compound_id>  (79) 
11140

>  <target_id>  (79) 
1

>  <reference_id>  (79) 
2

>  <inspiration_ids>  (79) 
[2, 66]

>  <energy_score>  (79) 
-21.566052979828328

>  <distance_score>  (79) 
13.13797406679721

>  <path>  (79) 
/opt/xchem-fragalysis-2/maxwin/BulkDock/SCRATCH/511014/C11140-P2/C11140-P2.minimised.mol

>  <scratch_subdir>  (79) 
/opt/xchem-fragalysis-2/maxwin/BulkDock/SCRATCH/511014/C11140-P2

>  <fragmenstein_runtime>  (79) 
19.280616760253906

>  <fragmenstein_outcome>  (79) 
too moved

>  <fragmenstein_mode>  (79) 
expansion

>  <fragmenstein_error>  (79) 


$$$$
C11140-P66
     RDKit          3D

 38 40  0  0  0  0  0  0  0  0999 V2000
  -11.3120  -23.8756    7.1234 N   0  0  0  0  0  0  0  0  0  0  0  0
  -11.4573  -22.7237    8.3408 S   0  0  0  0  0  0  0  0  0  0  0  0
  -10.9547  -23.3768    9.5232 O   0  0  0  0  0  0  0  0  0  0  0  0
  -12.8108  -22.2467    8.2008 O   0  0  0  0  0  0  0  0  0  0  0  0
  -10.3660  -21.4080    7.9069 C   0  0  0  0  0  0  0  0  0  0  0  0
   -9.5625  -21.6422    6.8407 C   0  0  0  0  0  0  0  0  0  0  0  0
   -8.5818  -20.7153    6.6709 C   0  0  0  0  0  0  0  0  0  0  0  0
   -8.1811  -20.0008    7.8843 C   0  0  0  0  0  0  0  0  0  0  0  0
   -6.9212  -18.9112    8.4971 O   0  0  0  0  0  0  0  0  0  0  0  0
   -7.1741  -17.5010    8.1799 C   0  0  0  0  0  0  0  0  0  0  0  0
   -6.6616  -15.8090    8.6158 N   0  0  0  0  0  0  0  0  0  0  0  0
   -4.9577  -14.9813    8.5695 C   0  0  0  0  0  0  0  0  0  0  0  0
   -3.9248  -15.5527    8.3176 O   0  0  0  0  0  0  0  0  0  0  0  0
   -5.2080  -13.4205    8.8036 N   0  0  0  0  0  0  0  0  0  0  0  0
   -4.2991  -12.2640    8.6818 C   0  0  0  0  0  0  0  0  0  0  0  0
   -4.5081  -10.9650    7.8033 C   0  0  0  0  0  0  0  0  0  0  0  0
   -3.7714   -9.6381    8.2484 C   0  0  0  0  0  0  0  0  0  0  0  0
   -2.7898   -8.9046    7.5799 C   0  0  0  0  0  0  0  0  0  0  0  0
   -2.3947   -7.7023    8.2471 C   0  0  0  0  0  0  0  0  0  0  0  0
   -3.1556   -7.4859    9.3699 C   0  0  0  0  0  0  0  0  0  0  0  0
   -4.2680   -8.7642    9.6508 S   0  0  0  0  0  0  0  0  0  0  0  0
   -8.4475  -17.9086    8.2810 N   0  0  0  0  0  0  0  0  0  0  0  0
   -9.1861  -19.3020    8.2446 C   0  0  0  0  0  0  0  0  0  0  0  0
  -10.3213  -20.0793    8.4542 C   0  0  0  0  0  0  0  0  0  0  0  0
  -10.9487  -24.7421    7.5263 H   0  0  0  0  0  0  0  0  0  0  0  0
  -12.2141  -23.9968    6.6589 H   0  0  0  0  0  0  0  0  0  0  0  0
   -9.6825  -22.4538    6.1357 H   0  0  0  0  0  0  0  0  0  0  0  0
   -8.0415  -20.7299    5.7312 H   0  0  0  0  0  0  0  0  0  0  0  0
   -7.3484  -15.1339    8.7506 H   0  0  0  0  0  0  0  0  0  0  0  0
   -6.0895  -13.2858    9.0574 H   0  0  0  0  0  0  0  0  0  0  0  0
   -4.5564  -11.7587    9.6016 H   0  0  0  0  0  0  0  0  0  0  0  0
   -3.3191  -12.6634    8.6659 H   0  0  0  0  0  0  0  0  0  0  0  0
   -5.5831  -10.7341    7.8037 H   0  0  0  0  0  0  0  0  0  0  0  0
   -4.2726  -11.1858    6.7550 H   0  0  0  0  0  0  0  0  0  0  0  0
   -2.3653   -9.2198    6.6330 H   0  0  0  0  0  0  0  0  0  0  0  0
   -1.6353   -7.0172    7.8905 H   0  0  0  0  0  0  0  0  0  0  0  0
   -3.1133   -6.6474   10.0516 H   0  0  0  0  0  0  0  0  0  0  0  0
  -11.0884  -19.5777    8.9973 H   0  0  0  0  0  0  0  0  0  0  0  0
  1  2  1  0
  2  3  2  0
  2  4  2  0
  2  5  1  0
  5  6  2  0
  6  7  1  0
  7  8  2  0
  8  9  1  0
  9 10  1  0
 10 11  1  0
 11 12  1  0
 12 13  2  0
 12 14  1  0
 14 15  1  0
 15 16  1  0
 16 17  1  0
 17 18  2  0
 18 19  1  0
 19 20  2  0
 20 21  1  0
 10 22  2  0
 22 23  1  0
 23 24  2  0
 24  5  1  0
 23  8  1  0
 21 17  1  0
  1 25  1  0
  1 26  1  0
  6 27  1  0
  7 28  1  0
 11 29  1  0
 14 30  1  0
 15 31  1  0
 15 32  1  0
 16 33  1  0
 16 34  1  0
 18 35  1  0
 19 36  1  0
 20 37  1  0
 24 38  1  0
M  END
>  <Energy>  (80) 
265.57323189101214

>  <compound_id>  (80) 
11140

>  <target_id>  (80) 
1

>  <reference_id>  (80) 
66

>  <inspiration_ids>  (80) 
[2, 66]

>  <energy_score>  (80) 
366.3209242786756

>  <distance_score>  (80) 
14.602429649742799

>  <path>  (80) 
/opt/xchem-fragalysis-2/maxwin/BulkDock/SCRATCH/511014/C11140-P66/C11140-P66.minimised.mol

>  <scratch_subdir>  (80) 
/opt/xchem-fragalysis-2/maxwin/BulkDock/SCRATCH/511014/C11140-P66

>  <fragmenstein_runtime>  (80) 
18.367694854736328

>  <fragmenstein_outcome>  (80) 
too moved

>  <fragmenstein_mode>  (80) 
expansion

>  <fragmenstein_error>  (80) 


$$$$
C11141-P2
     RDKit          3D

 42 44  0  0  0  0  0  0  0  0999 V2000
    3.2065  -13.0548    9.6965 C   0  0  0  0  0  0  0  0  0  0  0  0
    2.3633  -12.3905   10.8715 C   0  0  0  0  0  0  0  0  0  0  0  0
    0.5963  -13.5737   11.2306 C   0  0  0  0  0  0  0  0  0  0  0  0
   -0.6519  -15.0293   10.5417 N   0  0  0  0  0  0  0  0  0  0  0  0
   -2.1232  -15.7221    9.6608 C   0  0  0  0  0  0  0  0  0  0  0  0
   -3.2095  -15.5186    8.6169 N   0  0  0  0  0  0  0  0  0  0  0  0
   -4.4047  -16.8312    8.0807 C   0  0  0  0  0  0  0  0  0  0  0  0
   -6.4387  -16.9967    8.4112 C   0  0  0  0  0  0  0  0  0  0  0  0
   -7.5569  -17.8200    8.1671 C   0  0  0  0  0  0  0  0  0  0  0  0
   -7.2108  -18.8175    8.8990 C   0  0  0  0  0  0  0  0  0  0  0  0
   -5.8267  -18.5453    9.0246 C   0  0  0  0  0  0  0  0  0  0  0  0
   -3.9665  -17.8979    8.8905 C   0  0  0  0  0  0  0  0  0  0  0  0
   -2.6318  -17.3479    9.7842 O   0  0  0  0  0  0  0  0  0  0  0  0
    4.1050  -11.3944   11.3110 N   0  0  0  0  0  0  0  0  0  0  0  0
    3.3395  -10.3651   10.5387 C   0  0  0  0  0  0  0  0  0  0  0  0
    4.8957  -10.7346   13.0704 C   0  0  0  0  0  0  0  0  0  0  0  0
    4.1536  -10.8797   14.0318 O   0  0  0  0  0  0  0  0  0  0  0  0
    6.8019   -9.9805   13.7618 C   0  0  0  0  0  0  0  0  0  0  0  0
    8.4937   -9.8330   15.1397 C   0  0  0  0  0  0  0  0  0  0  0  0
    9.0951   -7.9016   15.0017 C   0  0  0  0  0  0  0  0  0  0  0  0
   10.6807   -6.7806   15.2302 C   0  0  0  0  0  0  0  0  0  0  0  0
   11.8131   -7.2728   15.8802 C   0  0  0  0  0  0  0  0  0  0  0  0
    9.7184   -7.9556   15.2715 S   0  0  0  0  0  0  0  0  0  0  0  0
    2.9796  -14.0741    9.3669 H   0  0  0  0  0  0  0  0  0  0  0  0
    3.2450  -12.3809    8.8561 H   0  0  0  0  0  0  0  0  0  0  0  0
    4.2222  -13.2620   10.0234 H   0  0  0  0  0  0  0  0  0  0  0  0
    1.7148  -11.5248   10.9972 H   0  0  0  0  0  0  0  0  0  0  0  0
   -0.1291  -12.7819   11.4190 H   0  0  0  0  0  0  0  0  0  0  0  0
    0.7497  -14.0217   12.2211 H   0  0  0  0  0  0  0  0  0  0  0  0
   -0.4131  -15.7603   11.2125 H   0  0  0  0  0  0  0  0  0  0  0  0
   -6.8260  -15.9723    8.8229 H   0  0  0  0  0  0  0  0  0  0  0  0
   -8.6022  -17.7864    8.0360 H   0  0  0  0  0  0  0  0  0  0  0  0
   -7.7757  -19.6805    9.2488 H   0  0  0  0  0  0  0  0  0  0  0  0
   -6.3824  -19.0370   10.1914 H   0  0  0  0  0  0  0  0  0  0  0  0
    2.4917   -9.9423   11.0311 H   0  0  0  0  0  0  0  0  0  0  0  0
    4.0150   -9.6232   10.1508 H   0  0  0  0  0  0  0  0  0  0  0  0
    3.0992  -10.7502    9.5627 H   0  0  0  0  0  0  0  0  0  0  0  0
    6.3064  -10.7030   14.3511 H   0  0  0  0  0  0  0  0  0  0  0  0
    6.5904   -8.8007   13.8186 H   0  0  0  0  0  0  0  0  0  0  0  0
    8.0239   -7.2803   14.7327 H   0  0  0  0  0  0  0  0  0  0  0  0
   10.7009   -5.6121   14.9487 H   0  0  0  0  0  0  0  0  0  0  0  0
   12.3451   -6.4022   16.2682 H   0  0  0  0  0  0  0  0  0  0  0  0
  1  2  1  0
  2  3  1  0
  3  4  1  0
  4  5  1  0
  5  6  2  0
  6  7  1  0
  7  8  2  0
  8  9  1  0
  9 10  2  0
 10 11  1  0
 11 12  2  0
 12 13  1  0
  2 14  1  0
 14 15  1  0
 14 16  1  0
 16 17  2  0
 16 18  1  0
 18 19  1  0
 19 20  2  0
 20 21  1  0
 21 22  2  0
 22 23  1  0
 13  5  1  0
 23 19  1  0
 12  7  1  0
  1 24  1  0
  1 25  1  0
  1 26  1  0
  2 27  1  0
  3 28  1  0
  3 29  1  0
  4 30  1  0
  8 31  1  0
  9 32  1  0
 10 33  1  0
 11 34  1  0
 15 35  1  0
 15 36  1  0
 15 37  1  0
 18 38  1  0
 18 39  1  0
 20 40  1  0
 21 41  1  0
 22 42  1  0
M  END
>  <Energy>  (81) 
2566.5519974639733

>  <compound_id>  (81) 
11141

>  <target_id>  (81) 
1

>  <reference_id>  (81) 
2

>  <inspiration_ids>  (81) 
[2, 66]

>  <energy_score>  (81) 
2487.755083832206

>  <distance_score>  (81) 
8.779031523383246

>  <path>  (81) 
/opt/xchem-fragalysis-2/maxwin/BulkDock/SCRATCH/511014/C11141-P2/C11141-P2.minimised.mol

>  <scratch_subdir>  (81) 
/opt/xchem-fragalysis-2/maxwin/BulkDock/SCRATCH/511014/C11141-P2

>  <fragmenstein_runtime>  (81) 
15.949144840240479

>  <fragmenstein_outcome>  (81) 
too moved

>  <fragmenstein_mode>  (81) 
expansion

>  <fragmenstein_error>  (81) 


$$$$
C11141-P66
     RDKit          3D

 42 44  0  0  0  0  0  0  0  0999 V2000
    6.6780  -13.5952   14.2012 C   0  0  0  0  0  0  0  0  0  0  0  0
    6.4310  -12.3846   13.4694 C   0  0  0  0  0  0  0  0  0  0  0  0
    6.5245  -13.8651   11.9705 C   0  0  0  0  0  0  0  0  0  0  0  0
    6.1625  -14.7402   10.3751 N   0  0  0  0  0  0  0  0  0  0  0  0
    5.2433  -15.6990    9.8386 C   0  0  0  0  0  0  0  0  0  0  0  0
    4.4076  -15.5464    8.8059 N   0  0  0  0  0  0  0  0  0  0  0  0
    3.4708  -16.5787    8.9050 C   0  0  0  0  0  0  0  0  0  0  0  0
    2.2698  -16.8434    8.2124 C   0  0  0  0  0  0  0  0  0  0  0  0
    1.4642  -17.9276    8.6134 C   0  0  0  0  0  0  0  0  0  0  0  0
    1.8602  -18.7542    9.6686 C   0  0  0  0  0  0  0  0  0  0  0  0
    3.0728  -18.5306   10.3443 C   0  0  0  0  0  0  0  0  0  0  0  0
    3.8342  -17.4314    9.9279 C   0  0  0  0  0  0  0  0  0  0  0  0
    5.0057  -16.9337   10.4750 O   0  0  0  0  0  0  0  0  0  0  0  0
    7.3756  -10.6298   14.0954 N   0  0  0  0  0  0  0  0  0  0  0  0
    5.5333  -10.4920   14.2014 C   0  0  0  0  0  0  0  0  0  0  0  0
    8.6897  -10.3447   15.3435 C   0  0  0  0  0  0  0  0  0  0  0  0
    9.1653  -11.1923   16.1162 O   0  0  0  0  0  0  0  0  0  0  0  0
    9.6517   -8.4392   15.3523 C   0  0  0  0  0  0  0  0  0  0  0  0
   10.8563   -6.6764   15.6492 C   0  0  0  0  0  0  0  0  0  0  0  0
   12.1772   -6.4334   16.1764 C   0  0  0  0  0  0  0  0  0  0  0  0
   12.7975   -5.1710   16.6000 C   0  0  0  0  0  0  0  0  0  0  0  0
   12.0660   -4.0787   16.3020 C   0  0  0  0  0  0  0  0  0  0  0  0
   10.7859   -4.4367   15.2633 S   0  0  0  0  0  0  0  0  0  0  0  0
    5.9851  -14.3341   13.9337 H   0  0  0  0  0  0  0  0  0  0  0  0
    7.3475  -13.7501   15.0410 H   0  0  0  0  0  0  0  0  0  0  0  0
    7.3470  -14.0430   13.5993 H   0  0  0  0  0  0  0  0  0  0  0  0
    5.3876  -12.3595   13.6746 H   0  0  0  0  0  0  0  0  0  0  0  0
    5.5002  -13.7048   11.6552 H   0  0  0  0  0  0  0  0  0  0  0  0
    7.4443  -13.6334   11.4933 H   0  0  0  0  0  0  0  0  0  0  0  0
    6.6671  -14.3137    9.5923 H   0  0  0  0  0  0  0  0  0  0  0  0
    1.9711  -16.2024    7.3931 H   0  0  0  0  0  0  0  0  0  0  0  0
    0.5308  -18.1296    8.0926 H   0  0  0  0  0  0  0  0  0  0  0  0
    1.2277  -19.5873    9.9704 H   0  0  0  0  0  0  0  0  0  0  0  0
    3.3874  -19.1501   11.1763 H   0  0  0  0  0  0  0  0  0  0  0  0
    5.1802  -10.7757   13.2180 H   0  0  0  0  0  0  0  0  0  0  0  0
    4.8759  -11.1236   14.8073 H   0  0  0  0  0  0  0  0  0  0  0  0
    5.1646   -9.4699   14.0753 H   0  0  0  0  0  0  0  0  0  0  0  0
   10.2122   -9.1469   14.7185 H   0  0  0  0  0  0  0  0  0  0  0  0
   10.2911   -9.2296   15.9663 H   0  0  0  0  0  0  0  0  0  0  0  0
   12.6828   -7.3341   16.2073 H   0  0  0  0  0  0  0  0  0  0  0  0
   13.7660   -5.1078   17.0753 H   0  0  0  0  0  0  0  0  0  0  0  0
   12.3209   -3.0496   16.5049 H   0  0  0  0  0  0  0  0  0  0  0  0
  1  2  1  0
  2  3  1  0
  3  4  1  0
  4  5  1  0
  5  6  2  0
  6  7  1  0
  7  8  2  0
  8  9  1  0
  9 10  2  0
 10 11  1  0
 11 12  2  0
 12 13  1  0
  2 14  1  0
 14 15  1  0
 14 16  1  0
 16 17  2  0
 16 18  1  0
 18 19  1  0
 19 20  2  0
 20 21  1  0
 21 22  2  0
 22 23  1  0
 13  5  1  0
 23 19  1  0
 12  7  1  0
  1 24  1  0
  1 25  1  0
  1 26  1  0
  2 27  1  0
  3 28  1  0
  3 29  1  0
  4 30  1  0
  8 31  1  0
  9 32  1  0
 10 33  1  0
 11 34  1  0
 15 35  1  0
 15 36  1  0
 15 37  1  0
 18 38  1  0
 18 39  1  0
 20 40  1  0
 21 41  1  0
 22 42  1  0
M  END
>  <Energy>  (82) 
1132.15108070117

>  <compound_id>  (82) 
11141

>  <target_id>  (82) 
1

>  <reference_id>  (82) 
66

>  <inspiration_ids>  (82) 
[2, 66]

>  <energy_score>  (82) 
1053.3541670693644

>  <distance_score>  (82) 
11.322387360535084

>  <path>  (82) 
/opt/xchem-fragalysis-2/maxwin/BulkDock/SCRATCH/511014/C11141-P66/C11141-P66.minimised.mol

>  <scratch_subdir>  (82) 
/opt/xchem-fragalysis-2/maxwin/BulkDock/SCRATCH/511014/C11141-P66

>  <fragmenstein_runtime>  (82) 
17.504000186920166

>  <fragmenstein_outcome>  (82) 
too moved

>  <fragmenstein_mode>  (82) 
expansion

>  <fragmenstein_error>  (82) 


$$$$
C11144-P2
     RDKit          3D

 42 44  0  0  0  0  0  0  0  0999 V2000
    2.4977  -17.2204    6.4282 C   0  0  0  0  0  0  0  0  0  0  0  0
    2.7916  -18.1004    7.6495 C   0  0  0  0  0  0  0  0  0  0  0  0
    4.2907  -18.1983    7.7825 N   0  0  0  0  0  0  0  0  0  0  0  0
    5.2606  -17.3049    8.4407 C   0  0  0  0  0  0  0  0  0  0  0  0
    5.0887  -16.3198    9.1026 O   0  0  0  0  0  0  0  0  0  0  0  0
    6.7378  -17.7354    8.1252 C   0  0  0  0  0  0  0  0  0  0  0  0
    7.9099  -16.8064    8.6108 C   0  0  0  0  0  0  0  0  0  0  0  0
    8.2313  -15.4756    8.3649 C   0  0  0  0  0  0  0  0  0  0  0  0
    9.5092  -15.0564    8.8445 C   0  0  0  0  0  0  0  0  0  0  0  0
   10.1743  -16.0906    9.4494 C   0  0  0  0  0  0  0  0  0  0  0  0
    9.2235  -17.5156    9.4980 S   0  0  0  0  0  0  0  0  0  0  0  0
    1.9328  -19.4578    7.5874 C   0  0  0  0  0  0  0  0  0  0  0  0
    2.3235  -20.3069    6.3722 C   0  0  0  0  0  0  0  0  0  0  0  0
    0.4457  -19.1713    7.6052 N   0  0  0  0  0  0  0  0  0  0  0  0
   -0.4492  -20.1454    7.2807 C   0  0  0  0  0  0  0  0  0  0  0  0
   -1.0601  -20.3655    6.1323 N   0  0  0  0  0  0  0  0  0  0  0  0
   -1.8411  -21.4699    6.3761 C   0  0  0  0  0  0  0  0  0  0  0  0
   -2.6833  -22.2137    5.5364 C   0  0  0  0  0  0  0  0  0  0  0  0
   -3.2766  -23.3780    6.0512 C   0  0  0  0  0  0  0  0  0  0  0  0
   -3.0523  -23.7747    7.3744 C   0  0  0  0  0  0  0  0  0  0  0  0
   -2.2645  -23.0068    8.2431 C   0  0  0  0  0  0  0  0  0  0  0  0
   -1.6781  -21.8763    7.6877 C   0  0  0  0  0  0  0  0  0  0  0  0
   -0.8138  -21.0041    8.2857 O   0  0  0  0  0  0  0  0  0  0  0  0
    1.4326  -16.9839    6.3483 H   0  0  0  0  0  0  0  0  0  0  0  0
    2.8175  -17.7035    5.4993 H   0  0  0  0  0  0  0  0  0  0  0  0
    3.0465  -16.2790    6.4875 H   0  0  0  0  0  0  0  0  0  0  0  0
    2.4641  -17.5446    8.5376 H   0  0  0  0  0  0  0  0  0  0  0  0
    4.7929  -18.8886    7.2358 H   0  0  0  0  0  0  0  0  0  0  0  0
    6.8341  -17.8331    7.0378 H   0  0  0  0  0  0  0  0  0  0  0  0
    6.8700  -18.7330    8.5625 H   0  0  0  0  0  0  0  0  0  0  0  0
    7.6241  -14.7963    7.8003 H   0  0  0  0  0  0  0  0  0  0  0  0
    9.9112  -14.0562    8.7333 H   0  0  0  0  0  0  0  0  0  0  0  0
   11.1588  -16.0728    9.8957 H   0  0  0  0  0  0  0  0  0  0  0  0
    2.1720  -20.0305    8.4929 H   0  0  0  0  0  0  0  0  0  0  0  0
    3.4077  -20.4410    6.3128 H   0  0  0  0  0  0  0  0  0  0  0  0
    1.8819  -21.3075    6.4371 H   0  0  0  0  0  0  0  0  0  0  0  0
    1.9788  -19.8595    5.4344 H   0  0  0  0  0  0  0  0  0  0  0  0
    0.2161  -18.8222    8.5479 H   0  0  0  0  0  0  0  0  0  0  0  0
   -2.8269  -21.9148    4.5044 H   0  0  0  0  0  0  0  0  0  0  0  0
   -3.9009  -23.9891    5.4029 H   0  0  0  0  0  0  0  0  0  0  0  0
   -3.5020  -24.6943    7.7428 H   0  0  0  0  0  0  0  0  0  0  0  0
   -2.0987  -23.2817    9.2771 H   0  0  0  0  0  0  0  0  0  0  0  0
  1  2  1  0
  2  3  1  0
  3  4  1  0
  4  5  2  0
  4  6  1  0
  6  7  1  0
  7  8  2  0
  8  9  1  0
  9 10  2  0
 10 11  1  0
  2 12  1  0
 12 13  1  0
 12 14  1  0
 14 15  1  0
 15 16  2  0
 16 17  1  0
 17 18  2  0
 18 19  1  0
 19 20  2  0
 20 21  1  0
 21 22  2  0
 22 23  1  0
 11  7  1  0
 23 15  1  0
 22 17  1  0
  1 24  1  0
  1 25  1  0
  1 26  1  0
  2 27  1  0
  3 28  1  0
  6 29  1  0
  6 30  1  0
  8 31  1  0
  9 32  1  0
 10 33  1  0
 12 34  1  0
 13 35  1  0
 13 36  1  0
 13 37  1  0
 14 38  1  0
 18 39  1  0
 19 40  1  0
 20 41  1  0
 21 42  1  0
M  END
>  <Energy>  (83) 
29.535747687576361

>  <compound_id>  (83) 
11144

>  <target_id>  (83) 
1

>  <reference_id>  (83) 
2

>  <inspiration_ids>  (83) 
[2, 66]

>  <energy_score>  (83) 
-29.398068543351656

>  <distance_score>  (83) 
13.682522462508944

>  <path>  (83) 
/opt/xchem-fragalysis-2/maxwin/BulkDock/SCRATCH/511014/C11144-P2/C11144-P2.minimised.mol

>  <scratch_subdir>  (83) 
/opt/xchem-fragalysis-2/maxwin/BulkDock/SCRATCH/511014/C11144-P2

>  <fragmenstein_runtime>  (83) 
14.956048011779785

>  <fragmenstein_outcome>  (83) 
too moved

>  <fragmenstein_mode>  (83) 
expansion

>  <fragmenstein_error>  (83) 


$$$$
C11144-P66
     RDKit          3D

 42 44  0  0  0  0  0  0  0  0999 V2000
    2.5862  -12.7278   10.4152 C   0  0  0  0  0  0  0  0  0  0  0  0
    0.7604  -13.2683   10.9024 C   0  0  0  0  0  0  0  0  0  0  0  0
    1.0231  -11.4219   11.5738 N   0  0  0  0  0  0  0  0  0  0  0  0
    0.9636   -9.8033   10.7337 C   0  0  0  0  0  0  0  0  0  0  0  0
    0.6400   -9.7639    9.6223 O   0  0  0  0  0  0  0  0  0  0  0  0
    1.4554   -8.0156   11.2967 C   0  0  0  0  0  0  0  0  0  0  0  0
    0.8050   -6.4434   11.4882 C   0  0  0  0  0  0  0  0  0  0  0  0
   -0.4131   -5.9352   11.9140 C   0  0  0  0  0  0  0  0  0  0  0  0
   -0.3995   -4.5272   12.1907 C   0  0  0  0  0  0  0  0  0  0  0  0
    0.8280   -3.9532   11.9930 C   0  0  0  0  0  0  0  0  0  0  0  0
    1.9606   -5.0911   11.4758 S   0  0  0  0  0  0  0  0  0  0  0  0
   -0.1173  -15.2030   10.5208 C   0  0  0  0  0  0  0  0  0  0  0  0
    0.5838  -16.1731   11.4573 C   0  0  0  0  0  0  0  0  0  0  0  0
   -1.0515  -16.6125    9.3539 N   0  0  0  0  0  0  0  0  0  0  0  0
   -2.1634  -18.1026    9.1776 C   0  0  0  0  0  0  0  0  0  0  0  0
   -3.4417  -17.9494    8.8995 N   0  0  0  0  0  0  0  0  0  0  0  0
   -4.5323  -19.2572    9.0291 C   0  0  0  0  0  0  0  0  0  0  0  0
   -6.4729  -18.7026    8.7654 C   0  0  0  0  0  0  0  0  0  0  0  0
   -7.8599  -19.9400    8.5311 C   0  0  0  0  0  0  0  0  0  0  0  0
   -7.5165  -21.7317    8.3569 C   0  0  0  0  0  0  0  0  0  0  0  0
   -5.3824  -22.2796    8.3816 C   0  0  0  0  0  0  0  0  0  0  0  0
   -4.0836  -20.7768    8.6439 C   0  0  0  0  0  0  0  0  0  0  0  0
   -2.4451  -19.8242    8.5021 O   0  0  0  0  0  0  0  0  0  0  0  0
    3.3544  -13.4853   10.1742 H   0  0  0  0  0  0  0  0  0  0  0  0
    2.9910  -11.9292   11.0236 H   0  0  0  0  0  0  0  0  0  0  0  0
    2.8246  -12.2075    9.4776 H   0  0  0  0  0  0  0  0  0  0  0  0
   -0.1258  -12.7767   10.5286 H   0  0  0  0  0  0  0  0  0  0  0  0
    1.3979  -11.2906   12.4893 H   0  0  0  0  0  0  0  0  0  0  0  0
    1.2992   -7.6689   10.2492 H   0  0  0  0  0  0  0  0  0  0  0  0
    2.5418   -7.8240   11.4181 H   0  0  0  0  0  0  0  0  0  0  0  0
   -1.2878   -6.5349   12.1085 H   0  0  0  0  0  0  0  0  0  0  0  0
   -1.2632   -3.9736   12.5389 H   0  0  0  0  0  0  0  0  0  0  0  0
    1.1044   -2.9170   12.1313 H   0  0  0  0  0  0  0  0  0  0  0  0
    0.6835  -15.3043    9.7835 H   0  0  0  0  0  0  0  0  0  0  0  0
    1.5278  -16.5110   11.0184 H   0  0  0  0  0  0  0  0  0  0  0  0
    0.0640  -17.1186   11.5614 H   0  0  0  0  0  0  0  0  0  0  0  0
    0.7259  -15.6618   12.3954 H   0  0  0  0  0  0  0  0  0  0  0  0
   -1.7580  -15.9622    8.9876 H   0  0  0  0  0  0  0  0  0  0  0  0
   -6.6396  -17.7064    8.3277 H   0  0  0  0  0  0  0  0  0  0  0  0
   -8.8390  -19.6180    8.1770 H   0  0  0  0  0  0  0  0  0  0  0  0
   -8.3540  -22.3947    8.0308 H   0  0  0  0  0  0  0  0  0  0  0  0
   -4.9155  -23.2194    8.0217 H   0  0  0  0  0  0  0  0  0  0  0  0
  1  2  1  0
  2  3  1  0
  3  4  1  0
  4  5  2  0
  4  6  1  0
  6  7  1  0
  7  8  2  0
  8  9  1  0
  9 10  2  0
 10 11  1  0
  2 12  1  0
 12 13  1  0
 12 14  1  0
 14 15  1  0
 15 16  2  0
 16 17  1  0
 17 18  2  0
 18 19  1  0
 19 20  2  0
 20 21  1  0
 21 22  2  0
 22 23  1  0
 11  7  1  0
 23 15  1  0
 22 17  1  0
  1 24  1  0
  1 25  1  0
  1 26  1  0
  2 27  1  0
  3 28  1  0
  6 29  1  0
  6 30  1  0
  8 31  1  0
  9 32  1  0
 10 33  1  0
 12 34  1  0
 13 35  1  0
 13 36  1  0
 13 37  1  0
 14 38  1  0
 18 39  1  0
 19 40  1  0
 20 41  1  0
 21 42  1  0
M  END
>  <Energy>  (84) 
1738.6471912097377

>  <compound_id>  (84) 
11144

>  <target_id>  (84) 
1

>  <reference_id>  (84) 
66

>  <inspiration_ids>  (84) 
[2, 66]

>  <energy_score>  (84) 
1679.7133749788377

>  <distance_score>  (84) 
11.09211266107263

>  <path>  (84) 
/opt/xchem-fragalysis-2/maxwin/BulkDock/SCRATCH/511014/C11144-P66/C11144-P66.minimised.mol

>  <scratch_subdir>  (84) 
/opt/xchem-fragalysis-2/maxwin/BulkDock/SCRATCH/511014/C11144-P66

>  <fragmenstein_runtime>  (84) 
14.387575387954712

>  <fragmenstein_outcome>  (84) 
too moved

>  <fragmenstein_mode>  (84) 
expansion

>  <fragmenstein_error>  (84) 


$$$$
C11149-P2
     RDKit          3D

 40 42  0  0  0  0  0  0  0  0999 V2000
   -0.6830  -15.5790   12.0163 C   0  0  0  0  0  0  0  0  0  0  0  0
   -0.5502  -14.7421   10.7117 C   0  0  0  0  0  0  0  0  0  0  0  0
    0.4480  -13.0358   11.2458 C   0  0  0  0  0  0  0  0  0  0  0  0
    2.0854  -12.0160   10.8103 N   0  0  0  0  0  0  0  0  0  0  0  0
    2.3810  -10.2391   10.6158 C   0  0  0  0  0  0  0  0  0  0  0  0
    1.4581   -9.4794   10.6909 O   0  0  0  0  0  0  0  0  0  0  0  0
    4.1174   -9.1926   10.0899 C   0  0  0  0  0  0  0  0  0  0  0  0
    5.3880   -7.5376    9.6646 C   0  0  0  0  0  0  0  0  0  0  0  0
    6.1628   -5.8151    8.8514 C   0  0  0  0  0  0  0  0  0  0  0  0
    7.5652   -5.0465    8.8040 C   0  0  0  0  0  0  0  0  0  0  0  0
    7.7837   -3.9001    8.0768 C   0  0  0  0  0  0  0  0  0  0  0  0
    6.3400   -3.3362    7.5123 S   0  0  0  0  0  0  0  0  0  0  0  0
    5.5571   -4.7413    8.1028 C   0  0  0  0  0  0  0  0  0  0  0  0
   -2.2495  -15.1185    9.8160 C   0  0  0  0  0  0  0  0  0  0  0  0
   -3.3617  -14.5471   10.0811 N   0  0  0  0  0  0  0  0  0  0  0  0
   -4.6999  -14.2634    9.1397 C   0  0  0  0  0  0  0  0  0  0  0  0
   -6.1109  -13.9153    9.3622 C   0  0  0  0  0  0  0  0  0  0  0  0
   -7.0214  -13.7119    8.3784 C   0  0  0  0  0  0  0  0  0  0  0  0
   -6.4799  -13.8540    7.1467 C   0  0  0  0  0  0  0  0  0  0  0  0
   -5.1262  -14.2452    6.9811 C   0  0  0  0  0  0  0  0  0  0  0  0
   -4.5074  -14.9993    8.1065 C   0  0  0  0  0  0  0  0  0  0  0  0
   -3.0303  -15.9745    8.5804 O   0  0  0  0  0  0  0  0  0  0  0  0
    0.1788  -15.4331   12.6719 H   0  0  0  0  0  0  0  0  0  0  0  0
   -1.5929  -15.3645   12.5742 H   0  0  0  0  0  0  0  0  0  0  0  0
   -0.7277  -16.6449   11.7628 H   0  0  0  0  0  0  0  0  0  0  0  0
    0.1919  -15.3597   10.1810 H   0  0  0  0  0  0  0  0  0  0  0  0
   -0.2722  -12.2172   11.1964 H   0  0  0  0  0  0  0  0  0  0  0  0
    0.5344  -13.2292   12.3194 H   0  0  0  0  0  0  0  0  0  0  0  0
    2.9571  -12.5061   10.6329 H   0  0  0  0  0  0  0  0  0  0  0  0
    3.7092   -8.6657   10.9956 H   0  0  0  0  0  0  0  0  0  0  0  0
    4.4519  -10.1171    9.6140 H   0  0  0  0  0  0  0  0  0  0  0  0
    5.1036   -6.9355   10.5053 H   0  0  0  0  0  0  0  0  0  0  0  0
    6.4115   -7.8085    9.5223 H   0  0  0  0  0  0  0  0  0  0  0  0
    8.4841   -5.3668    9.2605 H   0  0  0  0  0  0  0  0  0  0  0  0
    8.7167   -3.3856    7.9043 H   0  0  0  0  0  0  0  0  0  0  0  0
    4.5680   -4.5616    7.7787 H   0  0  0  0  0  0  0  0  0  0  0  0
   -6.4642  -13.6144   10.3506 H   0  0  0  0  0  0  0  0  0  0  0  0
   -7.9598  -13.2001    8.5645 H   0  0  0  0  0  0  0  0  0  0  0  0
   -6.9695  -13.3967    6.2805 H   0  0  0  0  0  0  0  0  0  0  0  0
   -4.8458  -14.2070    5.9566 H   0  0  0  0  0  0  0  0  0  0  0  0
  1  2  1  0
  2  3  1  0
  3  4  1  0
  4  5  1  0
  5  6  2  0
  5  7  1  0
  7  8  1  0
  8  9  1  0
  9 10  1  0
 10 11  2  0
 11 12  1  0
 12 13  1  0
  2 14  1  0
 14 15  2  0
 15 16  1  0
 16 17  2  0
 17 18  1  0
 18 19  2  0
 19 20  1  0
 20 21  2  0
 21 22  1  0
 13  9  2  0
 22 14  1  0
 21 16  1  0
  1 23  1  0
  1 24  1  0
  1 25  1  0
  2 26  1  0
  3 27  1  0
  3 28  1  0
  4 29  1  0
  7 30  1  0
  7 31  1  0
  8 32  1  0
  8 33  1  0
 10 34  1  0
 11 35  1  0
 13 36  1  0
 17 37  1  0
 18 38  1  0
 19 39  1  0
 20 40  1  0
M  END
>  <Energy>  (85) 
974.81466550513346

>  <compound_id>  (85) 
11149

>  <target_id>  (85) 
1

>  <reference_id>  (85) 
2

>  <inspiration_ids>  (85) 
[2, 66]

>  <energy_score>  (85) 
920.5356934063707

>  <distance_score>  (85) 
10.223741312117584

>  <path>  (85) 
/opt/xchem-fragalysis-2/maxwin/BulkDock/SCRATCH/511014/C11149-P2/C11149-P2.minimised.mol

>  <scratch_subdir>  (85) 
/opt/xchem-fragalysis-2/maxwin/BulkDock/SCRATCH/511014/C11149-P2

>  <fragmenstein_runtime>  (85) 
17.84307050704956

>  <fragmenstein_outcome>  (85) 
too moved

>  <fragmenstein_mode>  (85) 
expansion

>  <fragmenstein_error>  (85) 


$$$$
C11149-P66
     RDKit          3D

 40 42  0  0  0  0  0  0  0  0999 V2000
   -2.9601  -23.9772   12.1544 C   0  0  0  0  0  0  0  0  0  0  0  0
   -4.2256  -23.2132   11.5933 C   0  0  0  0  0  0  0  0  0  0  0  0
   -4.2463  -21.2907   11.9222 C   0  0  0  0  0  0  0  0  0  0  0  0
   -3.0477  -20.4973   12.9003 N   0  0  0  0  0  0  0  0  0  0  0  0
   -1.8368  -19.6930   12.5157 C   0  0  0  0  0  0  0  0  0  0  0  0
   -1.3554  -19.4687   11.4311 O   0  0  0  0  0  0  0  0  0  0  0  0
   -1.1195  -18.9075   13.7490 C   0  0  0  0  0  0  0  0  0  0  0  0
   -0.0820  -17.7442   13.2762 C   0  0  0  0  0  0  0  0  0  0  0  0
    0.5322  -16.7440   14.2871 C   0  0  0  0  0  0  0  0  0  0  0  0
    0.3738  -15.3059   14.2116 C   0  0  0  0  0  0  0  0  0  0  0  0
    1.0516  -14.6190   15.1962 C   0  0  0  0  0  0  0  0  0  0  0  0
    1.9605  -15.6639   16.1919 S   0  0  0  0  0  0  0  0  0  0  0  0
    1.4324  -17.0379   15.3016 C   0  0  0  0  0  0  0  0  0  0  0  0
   -4.6990  -24.0966   10.4062 C   0  0  0  0  0  0  0  0  0  0  0  0
   -5.6678  -25.0157   10.4846 N   0  0  0  0  0  0  0  0  0  0  0  0
   -5.7524  -25.5273    9.2161 C   0  0  0  0  0  0  0  0  0  0  0  0
   -6.7074  -26.3711    8.6420 C   0  0  0  0  0  0  0  0  0  0  0  0
   -6.6356  -26.5869    7.2613 C   0  0  0  0  0  0  0  0  0  0  0  0
   -5.6230  -26.0030    6.4887 C   0  0  0  0  0  0  0  0  0  0  0  0
   -4.6450  -25.1797    7.0588 C   0  0  0  0  0  0  0  0  0  0  0  0
   -4.7707  -24.9638    8.4217 C   0  0  0  0  0  0  0  0  0  0  0  0
   -4.0353  -24.1168    9.1966 O   0  0  0  0  0  0  0  0  0  0  0  0
   -2.4511  -23.4511   12.9676 H   0  0  0  0  0  0  0  0  0  0  0  0
   -3.2543  -24.9656   12.5263 H   0  0  0  0  0  0  0  0  0  0  0  0
   -2.2188  -24.1593   11.3682 H   0  0  0  0  0  0  0  0  0  0  0  0
   -5.1325  -23.5304   12.1362 H   0  0  0  0  0  0  0  0  0  0  0  0
   -5.1249  -20.9980   12.4780 H   0  0  0  0  0  0  0  0  0  0  0  0
   -4.2951  -20.7222   11.0030 H   0  0  0  0  0  0  0  0  0  0  0  0
   -3.1114  -20.5418   13.9037 H   0  0  0  0  0  0  0  0  0  0  0  0
   -1.9037  -18.4532   14.3637 H   0  0  0  0  0  0  0  0  0  0  0  0
   -0.5808  -19.6472   14.3498 H   0  0  0  0  0  0  0  0  0  0  0  0
    0.7518  -18.2448   12.7656 H   0  0  0  0  0  0  0  0  0  0  0  0
   -0.5943  -17.1549   12.5040 H   0  0  0  0  0  0  0  0  0  0  0  0
   -0.2187  -14.8119   13.4550 H   0  0  0  0  0  0  0  0  0  0  0  0
    1.0724  -13.5564   15.3647 H   0  0  0  0  0  0  0  0  0  0  0  0
    1.8077  -18.0140   15.5786 H   0  0  0  0  0  0  0  0  0  0  0  0
   -7.4974  -26.8052    9.2437 H   0  0  0  0  0  0  0  0  0  0  0  0
   -7.3750  -27.2256    6.7819 H   0  0  0  0  0  0  0  0  0  0  0  0
   -5.5906  -26.1998    5.4181 H   0  0  0  0  0  0  0  0  0  0  0  0
   -3.8635  -24.7091    6.4762 H   0  0  0  0  0  0  0  0  0  0  0  0
  1  2  1  0
  2  3  1  0
  3  4  1  0
  4  5  1  0
  5  6  2  0
  5  7  1  0
  7  8  1  0
  8  9  1  0
  9 10  1  0
 10 11  2  0
 11 12  1  0
 12 13  1  0
  2 14  1  0
 14 15  2  0
 15 16  1  0
 16 17  2  0
 17 18  1  0
 18 19  2  0
 19 20  1  0
 20 21  2  0
 21 22  1  0
 13  9  2  0
 22 14  1  0
 21 16  1  0
  1 23  1  0
  1 24  1  0
  1 25  1  0
  2 26  1  0
  3 27  1  0
  3 28  1  0
  4 29  1  0
  7 30  1  0
  7 31  1  0
  8 32  1  0
  8 33  1  0
 10 34  1  0
 11 35  1  0
 13 36  1  0
 17 37  1  0
 18 38  1  0
 19 39  1  0
 20 40  1  0
M  END
>  <Energy>  (86) 
125.39912444592049

>  <compound_id>  (86) 
11149

>  <target_id>  (86) 
1

>  <reference_id>  (86) 
66

>  <inspiration_ids>  (86) 
[2, 66]

>  <energy_score>  (86) 
71.12015234716992

>  <distance_score>  (86) 
13.167486089188547

>  <path>  (86) 
/opt/xchem-fragalysis-2/maxwin/BulkDock/SCRATCH/511014/C11149-P66/C11149-P66.minimised.mol

>  <scratch_subdir>  (86) 
/opt/xchem-fragalysis-2/maxwin/BulkDock/SCRATCH/511014/C11149-P66

>  <fragmenstein_runtime>  (86) 
24.828821897506714

>  <fragmenstein_outcome>  (86) 
too moved

>  <fragmenstein_mode>  (86) 
expansion

>  <fragmenstein_error>  (86) 


$$$$
C11150-P2
     RDKit          3D

 38 40  0  0  0  0  0  0  0  0999 V2000
   -6.8615  -19.5094   10.8725 C   0  0  0  0  0  0  0  0  0  0  0  0
   -5.7474  -19.6109   12.0450 C   0  0  0  0  0  0  0  0  0  0  0  0
   -3.8628  -19.9554   11.7671 C   0  0  0  0  0  0  0  0  0  0  0  0
   -6.8678  -21.1405   12.2367 C   0  0  0  0  0  0  0  0  0  0  0  0
   -5.5242  -18.0267   12.9535 C   0  0  0  0  0  0  0  0  0  0  0  0
   -5.7151  -16.6729   13.0125 N   0  0  0  0  0  0  0  0  0  0  0  0
   -4.7538  -15.9895   14.0242 C   0  0  0  0  0  0  0  0  0  0  0  0
   -4.1141  -14.7641   14.3687 C   0  0  0  0  0  0  0  0  0  0  0  0
   -2.6314  -14.8567   15.1407 C   0  0  0  0  0  0  0  0  0  0  0  0
   -1.0947  -14.0546   14.1319 N   0  0  0  0  0  0  0  0  0  0  0  0
    0.1305  -13.7065   12.3944 S   0  0  0  0  0  0  0  0  0  0  0  0
   -0.4814  -14.5233   11.3672 O   0  0  0  0  0  0  0  0  0  0  0  0
   -0.2496  -12.3378   12.7176 O   0  0  0  0  0  0  0  0  0  0  0  0
    1.3379  -12.4207   11.1309 C   0  0  0  0  0  0  0  0  0  0  0  0
    2.8009  -12.6437   10.2337 C   0  0  0  0  0  0  0  0  0  0  0  0
    3.3912  -11.5124    9.7483 C   0  0  0  0  0  0  0  0  0  0  0  0
    3.0983  -10.4228   10.9301 S   0  0  0  0  0  0  0  0  0  0  0  0
    1.4408  -11.0403   11.3156 C   0  0  0  0  0  0  0  0  0  0  0  0
   -2.4890  -15.8678   16.0674 C   0  0  0  0  0  0  0  0  0  0  0  0
   -3.2042  -17.0270   15.7500 C   0  0  0  0  0  0  0  0  0  0  0  0
   -4.0811  -16.9797   14.6342 C   0  0  0  0  0  0  0  0  0  0  0  0
   -4.2881  -17.9847   13.7420 O   0  0  0  0  0  0  0  0  0  0  0  0
   -6.7564  -18.8356   10.0457 H   0  0  0  0  0  0  0  0  0  0  0  0
   -7.1183  -20.3930   10.2772 H   0  0  0  0  0  0  0  0  0  0  0  0
   -7.8380  -19.4418   11.3362 H   0  0  0  0  0  0  0  0  0  0  0  0
   -3.0125  -19.4657   12.1838 H   0  0  0  0  0  0  0  0  0  0  0  0
   -3.5554  -20.8967   12.2727 H   0  0  0  0  0  0  0  0  0  0  0  0
   -3.5482  -19.9857   10.7057 H   0  0  0  0  0  0  0  0  0  0  0  0
   -6.8514  -21.7974   13.0851 H   0  0  0  0  0  0  0  0  0  0  0  0
   -6.8035  -21.9344   11.4782 H   0  0  0  0  0  0  0  0  0  0  0  0
   -7.9221  -20.9815   11.9902 H   0  0  0  0  0  0  0  0  0  0  0  0
   -4.3075  -13.9506   13.6785 H   0  0  0  0  0  0  0  0  0  0  0  0
   -0.3967  -13.9348   14.8222 H   0  0  0  0  0  0  0  0  0  0  0  0
    3.1506  -13.5751    9.7868 H   0  0  0  0  0  0  0  0  0  0  0  0
    4.1337  -11.3860    8.9805 H   0  0  0  0  0  0  0  0  0  0  0  0
    0.6765  -10.4217   11.7211 H   0  0  0  0  0  0  0  0  0  0  0  0
   -1.6763  -15.9068   16.7783 H   0  0  0  0  0  0  0  0  0  0  0  0
   -2.8798  -17.9845   16.1433 H   0  0  0  0  0  0  0  0  0  0  0  0
  1  2  1  0
  2  3  1  0
  2  4  1  0
  2  5  1  0
  5  6  2  0
  6  7  1  0
  7  8  2  0
  8  9  1  0
  9 10  1  0
 10 11  1  0
 11 12  2  0
 11 13  2  0
 11 14  1  0
 14 15  1  0
 15 16  2  0
 16 17  1  0
 17 18  1  0
  9 19  2  0
 19 20  1  0
 20 21  2  0
 21 22  1  0
 22  5  1  0
 21  7  1  0
 18 14  2  0
  1 23  1  0
  1 24  1  0
  1 25  1  0
  3 26  1  0
  3 27  1  0
  3 28  1  0
  4 29  1  0
  4 30  1  0
  4 31  1  0
  8 32  1  0
 10 33  1  0
 15 34  1  0
 16 35  1  0
 18 36  1  0
 19 37  1  0
 20 38  1  0
M  END
>  <Energy>  (87) 
711.17263416637059

>  <compound_id>  (87) 
11150

>  <target_id>  (87) 
1

>  <reference_id>  (87) 
2

>  <inspiration_ids>  (87) 
[2, 66]

>  <energy_score>  (87) 
653.7957155936622

>  <distance_score>  (87) 
12.574376267952998

>  <path>  (87) 
/opt/xchem-fragalysis-2/maxwin/BulkDock/SCRATCH/511014/C11150-P2/C11150-P2.minimised.mol

>  <scratch_subdir>  (87) 
/opt/xchem-fragalysis-2/maxwin/BulkDock/SCRATCH/511014/C11150-P2

>  <fragmenstein_runtime>  (87) 
8.071733236312866

>  <fragmenstein_outcome>  (87) 
too moved

>  <fragmenstein_mode>  (87) 
expansion

>  <fragmenstein_error>  (87) 


$$$$
C11150-P66
     RDKit          3D

 38 40  0  0  0  0  0  0  0  0999 V2000
   -9.3762  -19.4766   11.9300 C   0  0  0  0  0  0  0  0  0  0  0  0
   -8.0933  -20.2080   11.5167 C   0  0  0  0  0  0  0  0  0  0  0  0
   -8.5303  -21.8349   12.0749 C   0  0  0  0  0  0  0  0  0  0  0  0
   -8.5168  -20.4908    9.8823 C   0  0  0  0  0  0  0  0  0  0  0  0
   -6.5053  -19.1946   12.1237 C   0  0  0  0  0  0  0  0  0  0  0  0
   -5.2154  -19.2770   12.7249 N   0  0  0  0  0  0  0  0  0  0  0  0
   -4.8315  -18.0297   13.7535 C   0  0  0  0  0  0  0  0  0  0  0  0
   -3.6351  -17.3803   14.5752 C   0  0  0  0  0  0  0  0  0  0  0  0
   -3.4173  -15.8541   14.8511 C   0  0  0  0  0  0  0  0  0  0  0  0
   -1.8805  -14.8331   15.0738 N   0  0  0  0  0  0  0  0  0  0  0  0
   -0.2306  -13.9147   13.5997 S   0  0  0  0  0  0  0  0  0  0  0  0
    0.3941  -14.8939   12.7316 O   0  0  0  0  0  0  0  0  0  0  0  0
   -0.4688  -12.6546   12.9536 O   0  0  0  0  0  0  0  0  0  0  0  0
    1.4503  -12.6423   14.3191 C   0  0  0  0  0  0  0  0  0  0  0  0
    2.4333  -12.8663   15.8697 C   0  0  0  0  0  0  0  0  0  0  0  0
    3.6509  -12.0796   16.0205 C   0  0  0  0  0  0  0  0  0  0  0  0
    4.0003  -10.7201   14.5201 S   0  0  0  0  0  0  0  0  0  0  0  0
    2.0206  -11.3855   13.5275 C   0  0  0  0  0  0  0  0  0  0  0  0
   -4.6595  -15.2434   14.7784 C   0  0  0  0  0  0  0  0  0  0  0  0
   -5.8791  -15.9358   14.3309 C   0  0  0  0  0  0  0  0  0  0  0  0
   -5.8939  -17.2183   13.6730 C   0  0  0  0  0  0  0  0  0  0  0  0
   -6.8383  -17.8362   12.8005 O   0  0  0  0  0  0  0  0  0  0  0  0
  -10.0696  -20.0574   12.5450 H   0  0  0  0  0  0  0  0  0  0  0  0
   -9.8344  -19.2808   11.0035 H   0  0  0  0  0  0  0  0  0  0  0  0
   -9.3430  -18.4655   12.3515 H   0  0  0  0  0  0  0  0  0  0  0  0
   -9.5936  -21.9052   12.3387 H   0  0  0  0  0  0  0  0  0  0  0  0
   -7.9469  -22.1788   12.9395 H   0  0  0  0  0  0  0  0  0  0  0  0
   -8.4491  -22.6042   11.3017 H   0  0  0  0  0  0  0  0  0  0  0  0
   -7.9263  -19.9402    9.1633 H   0  0  0  0  0  0  0  0  0  0  0  0
   -9.5118  -20.2121    9.5312 H   0  0  0  0  0  0  0  0  0  0  0  0
   -8.6340  -21.5483    9.6390 H   0  0  0  0  0  0  0  0  0  0  0  0
   -2.8150  -18.0732   14.7569 H   0  0  0  0  0  0  0  0  0  0  0  0
   -1.7091  -14.4473   16.0141 H   0  0  0  0  0  0  0  0  0  0  0  0
    2.1019  -13.6070   16.5958 H   0  0  0  0  0  0  0  0  0  0  0  0
    4.4174  -12.0423   16.7807 H   0  0  0  0  0  0  0  0  0  0  0  0
    1.8599  -11.1530   12.4362 H   0  0  0  0  0  0  0  0  0  0  0  0
   -4.7665  -14.1963   15.0401 H   0  0  0  0  0  0  0  0  0  0  0  0
   -6.7964  -15.3565   14.3880 H   0  0  0  0  0  0  0  0  0  0  0  0
  1  2  1  0
  2  3  1  0
  2  4  1  0
  2  5  1  0
  5  6  2  0
  6  7  1  0
  7  8  2  0
  8  9  1  0
  9 10  1  0
 10 11  1  0
 11 12  2  0
 11 13  2  0
 11 14  1  0
 14 15  1  0
 15 16  2  0
 16 17  1  0
 17 18  1  0
  9 19  2  0
 19 20  1  0
 20 21  2  0
 21 22  1  0
 22  5  1  0
 21  7  1  0
 18 14  2  0
  1 23  1  0
  1 24  1  0
  1 25  1  0
  3 26  1  0
  3 27  1  0
  3 28  1  0
  4 29  1  0
  4 30  1  0
  4 31  1  0
  8 32  1  0
 10 33  1  0
 15 34  1  0
 16 35  1  0
 18 36  1  0
 19 37  1  0
 20 38  1  0
M  END
>  <Energy>  (88) 
652.77952553923376

>  <compound_id>  (88) 
11150

>  <target_id>  (88) 
1

>  <reference_id>  (88) 
66

>  <inspiration_ids>  (88) 
[2, 66]

>  <energy_score>  (88) 
595.4026069665216

>  <distance_score>  (88) 
11.705889103078311

>  <path>  (88) 
/opt/xchem-fragalysis-2/maxwin/BulkDock/SCRATCH/511014/C11150-P66/C11150-P66.minimised.mol

>  <scratch_subdir>  (88) 
/opt/xchem-fragalysis-2/maxwin/BulkDock/SCRATCH/511014/C11150-P66

>  <fragmenstein_runtime>  (88) 
6.854444742202759

>  <fragmenstein_outcome>  (88) 
too moved

>  <fragmenstein_mode>  (88) 
expansion

>  <fragmenstein_error>  (88) 


$$$$
C11151-P2
     RDKit          3D

 37 40  0  0  0  0  0  0  0  0999 V2000
   -8.9418  -20.5119    9.1215 C   0  0  0  0  0  0  0  0  0  0  0  0
   -9.2756  -19.7284    8.0314 C   0  0  0  0  0  0  0  0  0  0  0  0
   -8.5539  -18.5197    7.7084 C   0  0  0  0  0  0  0  0  0  0  0  0
   -7.3567  -18.1294    8.4515 C   0  0  0  0  0  0  0  0  0  0  0  0
   -5.9792  -17.2788    8.5553 O   0  0  0  0  0  0  0  0  0  0  0  0
   -4.2261  -17.8142    8.8669 C   0  0  0  0  0  0  0  0  0  0  0  0
   -2.4666  -17.6842    9.5803 C   0  0  0  0  0  0  0  0  0  0  0  0
   -2.2378  -19.4363   10.5160 C   0  0  0  0  0  0  0  0  0  0  0  0
   -0.8224  -19.5628   11.7420 O   0  0  0  0  0  0  0  0  0  0  0  0
    0.7527  -18.6245   11.6666 C   0  0  0  0  0  0  0  0  0  0  0  0
    0.6397  -17.0099   10.6792 C   0  0  0  0  0  0  0  0  0  0  0  0
   -0.9876  -16.3460    9.9533 N   0  0  0  0  0  0  0  0  0  0  0  0
   -0.9874  -15.0854   11.0361 C   0  0  0  0  0  0  0  0  0  0  0  0
    0.0220  -14.6251   12.3817 C   0  0  0  0  0  0  0  0  0  0  0  0
    0.1063  -13.2488   12.8498 C   0  0  0  0  0  0  0  0  0  0  0  0
    0.1983  -13.1588   14.2324 C   0  0  0  0  0  0  0  0  0  0  0  0
    0.8119  -14.5678   14.9183 S   0  0  0  0  0  0  0  0  0  0  0  0
    0.7340  -15.3211   13.3740 C   0  0  0  0  0  0  0  0  0  0  0  0
   -5.5934  -18.8413    8.9651 N   0  0  0  0  0  0  0  0  0  0  0  0
   -7.0057  -19.0269    9.3748 C   0  0  0  0  0  0  0  0  0  0  0  0
   -7.8012  -20.1608    9.8335 C   0  0  0  0  0  0  0  0  0  0  0  0
   -9.4711  -21.4283    9.3527 H   0  0  0  0  0  0  0  0  0  0  0  0
  -10.0141  -20.0978    7.3252 H   0  0  0  0  0  0  0  0  0  0  0  0
   -8.5829  -18.3137    6.6432 H   0  0  0  0  0  0  0  0  0  0  0  0
   -2.0517  -17.9196    8.5711 H   0  0  0  0  0  0  0  0  0  0  0  0
   -1.9650  -20.2142    9.7871 H   0  0  0  0  0  0  0  0  0  0  0  0
   -3.0810  -19.7274   11.1400 H   0  0  0  0  0  0  0  0  0  0  0  0
    1.4165  -19.3427   11.1786 H   0  0  0  0  0  0  0  0  0  0  0  0
    0.9150  -18.4393   12.7275 H   0  0  0  0  0  0  0  0  0  0  0  0
    1.1909  -17.2361    9.7431 H   0  0  0  0  0  0  0  0  0  0  0  0
    1.2030  -16.1924   11.0705 H   0  0  0  0  0  0  0  0  0  0  0  0
   -0.6562  -14.2729   10.4533 H   0  0  0  0  0  0  0  0  0  0  0  0
   -2.0376  -14.8850   11.2333 H   0  0  0  0  0  0  0  0  0  0  0  0
   -0.1344  -12.3868   12.2343 H   0  0  0  0  0  0  0  0  0  0  0  0
   -0.0010  -12.3291   14.8896 H   0  0  0  0  0  0  0  0  0  0  0  0
    1.0656  -16.3486   13.4024 H   0  0  0  0  0  0  0  0  0  0  0  0
   -7.4254  -20.7921   10.6308 H   0  0  0  0  0  0  0  0  0  0  0  0
  1  2  2  0
  2  3  1  0
  3  4  2  0
  4  5  1  0
  5  6  1  0
  6  7  1  0
  7  8  1  0
  8  9  1  0
  9 10  1  0
 10 11  1  0
 11 12  1  0
 12 13  1  0
 13 14  1  0
 14 15  1  0
 15 16  2  0
 16 17  1  0
 17 18  1  0
  6 19  2  0
 19 20  1  0
 20 21  2  0
 21  1  1  0
 20  4  1  0
 12  7  1  0
 18 14  2  0
  1 22  1  0
  2 23  1  0
  3 24  1  0
  7 25  1  0
  8 26  1  0
  8 27  1  0
 10 28  1  0
 10 29  1  0
 11 30  1  0
 11 31  1  0
 13 32  1  0
 13 33  1  0
 15 34  1  0
 16 35  1  0
 18 36  1  0
 21 37  1  0
M  END
>  <Energy>  (89) 
998.76726016602925

>  <compound_id>  (89) 
11151

>  <target_id>  (89) 
1

>  <reference_id>  (89) 
2

>  <inspiration_ids>  (89) 
[2, 66]

>  <energy_score>  (89) 
832.0643660371418

>  <distance_score>  (89) 
12.53332672261692

>  <path>  (89) 
/opt/xchem-fragalysis-2/maxwin/BulkDock/SCRATCH/511014/C11151-P2/C11151-P2.minimised.mol

>  <scratch_subdir>  (89) 
/opt/xchem-fragalysis-2/maxwin/BulkDock/SCRATCH/511014/C11151-P2

>  <fragmenstein_runtime>  (89) 
13.696442365646362

>  <fragmenstein_outcome>  (89) 
too moved

>  <fragmenstein_mode>  (89) 
expansion

>  <fragmenstein_error>  (89) 


$$$$
C11151-P66
     RDKit          3D

 37 40  0  0  0  0  0  0  0  0999 V2000
   -5.7426  -17.7646   12.3766 C   0  0  0  0  0  0  0  0  0  0  0  0
   -4.3219  -19.1971   12.0756 C   0  0  0  0  0  0  0  0  0  0  0  0
   -3.1909  -18.5564   10.5330 C   0  0  0  0  0  0  0  0  0  0  0  0
   -2.7597  -16.7150    9.8840 C   0  0  0  0  0  0  0  0  0  0  0  0
   -1.0418  -15.9497    9.8653 O   0  0  0  0  0  0  0  0  0  0  0  0
   -0.3854  -14.4380   10.7238 C   0  0  0  0  0  0  0  0  0  0  0  0
    1.1931  -13.0210   10.9593 C   0  0  0  0  0  0  0  0  0  0  0  0
    2.9841  -13.0448   10.5665 C   0  0  0  0  0  0  0  0  0  0  0  0
    3.2987  -14.1652    9.6927 O   0  0  0  0  0  0  0  0  0  0  0  0
    4.3233  -13.4846    9.1551 C   0  0  0  0  0  0  0  0  0  0  0  0
    3.5623  -12.0073    8.9077 C   0  0  0  0  0  0  0  0  0  0  0  0
    2.4745  -11.5796   10.3244 N   0  0  0  0  0  0  0  0  0  0  0  0
    3.4472   -9.9751   10.4985 C   0  0  0  0  0  0  0  0  0  0  0  0
    4.6486   -8.4832    9.7550 C   0  0  0  0  0  0  0  0  0  0  0  0
    5.6219   -7.0893   10.3260 C   0  0  0  0  0  0  0  0  0  0  0  0
    6.6984   -6.6697    9.5396 C   0  0  0  0  0  0  0  0  0  0  0  0
    6.8537   -7.5605    8.0999 S   0  0  0  0  0  0  0  0  0  0  0  0
    5.4322   -8.5321    8.4188 C   0  0  0  0  0  0  0  0  0  0  0  0
   -1.7935  -14.6027   11.3391 N   0  0  0  0  0  0  0  0  0  0  0  0
   -3.3529  -15.5648   11.1529 C   0  0  0  0  0  0  0  0  0  0  0  0
   -5.2888  -15.8910   11.7996 C   0  0  0  0  0  0  0  0  0  0  0  0
   -6.3688  -17.8412   13.2508 H   0  0  0  0  0  0  0  0  0  0  0  0
   -4.6130  -20.2524   12.1532 H   0  0  0  0  0  0  0  0  0  0  0  0
   -3.4171  -19.1471    9.5816 H   0  0  0  0  0  0  0  0  0  0  0  0
    0.7211  -12.3026   11.6457 H   0  0  0  0  0  0  0  0  0  0  0  0
    3.7590  -13.3116   11.2745 H   0  0  0  0  0  0  0  0  0  0  0  0
    3.8602  -12.3584   10.8854 H   0  0  0  0  0  0  0  0  0  0  0  0
    5.1438  -13.5952    9.8311 H   0  0  0  0  0  0  0  0  0  0  0  0
    4.4913  -14.3036    8.5126 H   0  0  0  0  0  0  0  0  0  0  0  0
    2.8520  -11.9268    8.1137 H   0  0  0  0  0  0  0  0  0  0  0  0
    4.2607  -11.2065    8.6824 H   0  0  0  0  0  0  0  0  0  0  0  0
    4.2510  -10.6018   10.4807 H   0  0  0  0  0  0  0  0  0  0  0  0
    3.0675   -9.6010   11.3824 H   0  0  0  0  0  0  0  0  0  0  0  0
    5.3213   -6.5339   11.2177 H   0  0  0  0  0  0  0  0  0  0  0  0
    7.3845   -5.8562    9.7162 H   0  0  0  0  0  0  0  0  0  0  0  0
    5.4500   -9.4641    7.9177 H   0  0  0  0  0  0  0  0  0  0  0  0
   -5.4018  -15.1563   12.6525 H   0  0  0  0  0  0  0  0  0  0  0  0
  1  2  2  0
  2  3  1  0
  3  4  2  0
  4  5  1  0
  5  6  1  0
  6  7  1  0
  7  8  1  0
  8  9  1  0
  9 10  1  0
 10 11  1  0
 11 12  1  0
 12 13  1  0
 13 14  1  0
 14 15  1  0
 15 16  2  0
 16 17  1  0
 17 18  1  0
  6 19  2  0
 19 20  1  0
 20 21  2  0
 21  1  1  0
 20  4  1  0
 12  7  1  0
 18 14  2  0
  1 22  1  0
  2 23  1  0
  3 24  1  0
  7 25  1  0
  8 26  1  0
  8 27  1  0
 10 28  1  0
 10 29  1  0
 11 30  1  0
 11 31  1  0
 13 32  1  0
 13 33  1  0
 15 34  1  0
 16 35  1  0
 18 36  1  0
 21 37  1  0
M  END
>  <Energy>  (90) 
2049.2948135316897

>  <compound_id>  (90) 
11151

>  <target_id>  (90) 
1

>  <reference_id>  (90) 
66

>  <inspiration_ids>  (90) 
[2, 66]

>  <energy_score>  (90) 
1882.5919194028324

>  <distance_score>  (90) 
10.903335382890123

>  <path>  (90) 
/opt/xchem-fragalysis-2/maxwin/BulkDock/SCRATCH/511014/C11151-P66/C11151-P66.minimised.mol

>  <scratch_subdir>  (90) 
/opt/xchem-fragalysis-2/maxwin/BulkDock/SCRATCH/511014/C11151-P66

>  <fragmenstein_runtime>  (90) 
11.684338808059692

>  <fragmenstein_outcome>  (90) 
too moved

>  <fragmenstein_mode>  (90) 
expansion

>  <fragmenstein_error>  (90) 


$$$$
C11152-P2
     RDKit          3D

 40 43  0  0  0  0  0  0  0  0999 V2000
    1.4152   -9.7568    9.6035 O   0  0  0  0  0  0  0  0  0  0  0  0
    0.7704   -9.9494   10.3095 C   0  0  0  0  0  0  0  0  0  0  0  0
    0.9830   -8.8125   11.4245 C   0  0  0  0  0  0  0  0  0  0  0  0
    0.2962   -7.9884    9.8931 O   0  0  0  0  0  0  0  0  0  0  0  0
    1.7363   -7.0322   11.2732 C   0  0  0  0  0  0  0  0  0  0  0  0
    0.8770   -5.8128   11.3356 C   0  0  0  0  0  0  0  0  0  0  0  0
    1.5607   -4.6146   11.4020 C   0  0  0  0  0  0  0  0  0  0  0  0
    3.2445   -4.8260   11.3360 S   0  0  0  0  0  0  0  0  0  0  0  0
    3.0448   -6.5279   11.1729 C   0  0  0  0  0  0  0  0  0  0  0  0
   -0.4716  -11.3584    9.7153 N   0  0  0  0  0  0  0  0  0  0  0  0
    0.0442  -12.4105    7.5107 C   0  0  0  0  0  0  0  0  0  0  0  0
    1.5290  -11.9087    6.9990 C   0  0  0  0  0  0  0  0  0  0  0  0
    0.2186  -12.8429    7.4070 O   0  0  0  0  0  0  0  0  0  0  0  0
   -1.0831  -12.5793    9.2609 C   0  0  0  0  0  0  0  0  0  0  0  0
   -2.2122  -11.0007    8.8642 C   0  0  0  0  0  0  0  0  0  0  0  0
   -3.6737  -12.3090    8.4893 C   0  0  0  0  0  0  0  0  0  0  0  0
   -4.9769  -12.3564    8.0723 N   0  0  0  0  0  0  0  0  0  0  0  0
   -5.5467  -13.8217    8.3048 C   0  0  0  0  0  0  0  0  0  0  0  0
   -6.8053  -14.4048    8.5546 C   0  0  0  0  0  0  0  0  0  0  0  0
   -7.0429  -16.1102    8.7132 C   0  0  0  0  0  0  0  0  0  0  0  0
   -6.0110  -17.4438    8.4040 C   0  0  0  0  0  0  0  0  0  0  0  0
   -4.2872  -16.5970    8.1030 C   0  0  0  0  0  0  0  0  0  0  0  0
   -4.5764  -14.8010    8.4011 C   0  0  0  0  0  0  0  0  0  0  0  0
   -3.6014  -13.8088    9.0824 O   0  0  0  0  0  0  0  0  0  0  0  0
    0.2925   -8.2994   12.1078 H   0  0  0  0  0  0  0  0  0  0  0  0
    0.9775   -7.4394    9.5067 H   0  0  0  0  0  0  0  0  0  0  0  0
   -0.2044   -5.8638   11.3879 H   0  0  0  0  0  0  0  0  0  0  0  0
    1.1392   -3.6223   11.4859 H   0  0  0  0  0  0  0  0  0  0  0  0
    3.9408   -7.0423   10.9433 H   0  0  0  0  0  0  0  0  0  0  0  0
   -0.0226  -11.2777    6.5206 H   0  0  0  0  0  0  0  0  0  0  0  0
   -0.5774  -12.5095    6.1155 H   0  0  0  0  0  0  0  0  0  0  0  0
    1.5635  -12.1009    5.9038 H   0  0  0  0  0  0  0  0  0  0  0  0
    1.5300  -10.8018    7.1200 H   0  0  0  0  0  0  0  0  0  0  0  0
   -1.7950  -13.8419    9.3387 H   0  0  0  0  0  0  0  0  0  0  0  0
   -0.5057  -12.9506   10.4649 H   0  0  0  0  0  0  0  0  0  0  0  0
   -2.7388  -10.3541    9.5533 H   0  0  0  0  0  0  0  0  0  0  0  0
   -7.5965  -13.6638    8.6417 H   0  0  0  0  0  0  0  0  0  0  0  0
   -7.9070  -16.7004    8.5002 H   0  0  0  0  0  0  0  0  0  0  0  0
   -6.3059  -18.3819    8.8245 H   0  0  0  0  0  0  0  0  0  0  0  0
   -3.3363  -17.0246    8.4592 H   0  0  0  0  0  0  0  0  0  0  0  0
  1  2  2  0
  2  3  1  0
  3  4  1  0
  3  5  1  0
  5  6  1  0
  6  7  2  0
  7  8  1  0
  8  9  1  0
  2 10  1  0
 10 11  1  0
 11 12  1  0
 12 13  1  0
 13 14  1  0
 14 15  1  0
 15 16  1  0
 16 17  2  0
 17 18  1  0
 18 19  2  0
 19 20  1  0
 20 21  2  0
 21 22  1  0
 22 23  2  0
 23 24  1  0
  9  5  2  0
 15 10  1  0
 24 16  1  0
 23 18  1  0
  3 25  1  0
  4 26  1  0
  6 27  1  0
  7 28  1  0
  9 29  1  0
 11 30  1  0
 11 31  1  0
 12 32  1  0
 12 33  1  0
 14 34  1  0
 14 35  1  0
 15 36  1  0
 19 37  1  0
 20 38  1  0
 21 39  1  0
 22 40  1  0
M  END
>  <Energy>  (91) 
2661.6933204331522

>  <compound_id>  (91) 
11152

>  <target_id>  (91) 
1

>  <reference_id>  (91) 
2

>  <inspiration_ids>  (91) 
[2, 66]

>  <energy_score>  (91) 
2464.173694923796

>  <distance_score>  (91) 
10.955953567245139

>  <path>  (91) 
/opt/xchem-fragalysis-2/maxwin/BulkDock/SCRATCH/511014/C11152-P2/C11152-P2.minimised.mol

>  <scratch_subdir>  (91) 
/opt/xchem-fragalysis-2/maxwin/BulkDock/SCRATCH/511014/C11152-P2

>  <fragmenstein_runtime>  (91) 
11.587865352630615

>  <fragmenstein_outcome>  (91) 
too moved

>  <fragmenstein_mode>  (91) 
expansion

>  <fragmenstein_error>  (91) 


$$$$
C11152-P66
     RDKit          3D

 40 43  0  0  0  0  0  0  0  0999 V2000
    3.3041  -16.6621    8.0982 O   0  0  0  0  0  0  0  0  0  0  0  0
    3.7734  -17.5986    8.6911 C   0  0  0  0  0  0  0  0  0  0  0  0
    5.2973  -18.0218    8.4787 C   0  0  0  0  0  0  0  0  0  0  0  0
    5.6017  -19.2547    9.1485 O   0  0  0  0  0  0  0  0  0  0  0  0
    6.4107  -17.0010    8.8069 C   0  0  0  0  0  0  0  0  0  0  0  0
    7.8057  -17.2910    8.5165 C   0  0  0  0  0  0  0  0  0  0  0  0
    8.6849  -16.2795    8.8256 C   0  0  0  0  0  0  0  0  0  0  0  0
    7.8702  -14.9502    9.4613 S   0  0  0  0  0  0  0  0  0  0  0  0
    6.3407  -15.7440    9.3769 C   0  0  0  0  0  0  0  0  0  0  0  0
    3.1953  -18.4534    9.7063 N   0  0  0  0  0  0  0  0  0  0  0  0
    1.8805  -18.3745   10.4157 C   0  0  0  0  0  0  0  0  0  0  0  0
    1.7667  -19.3670   11.5841 C   0  0  0  0  0  0  0  0  0  0  0  0
    1.6146  -20.7041   11.1116 O   0  0  0  0  0  0  0  0  0  0  0  0
    2.5296  -20.9292   10.0329 C   0  0  0  0  0  0  0  0  0  0  0  0
    2.4754  -19.7483    9.0161 C   0  0  0  0  0  0  0  0  0  0  0  0
    1.1551  -19.7889    8.1790 C   0  0  0  0  0  0  0  0  0  0  0  0
    0.7509  -19.0450    7.1621 N   0  0  0  0  0  0  0  0  0  0  0  0
   -0.3556  -19.7117    6.6636 C   0  0  0  0  0  0  0  0  0  0  0  0
   -1.1606  -19.4688    5.5412 C   0  0  0  0  0  0  0  0  0  0  0  0
   -2.1805  -20.3867    5.2292 C   0  0  0  0  0  0  0  0  0  0  0  0
   -2.3996  -21.5206    6.0198 C   0  0  0  0  0  0  0  0  0  0  0  0
   -1.6073  -21.7768    7.1422 C   0  0  0  0  0  0  0  0  0  0  0  0
   -0.6036  -20.8470    7.4103 C   0  0  0  0  0  0  0  0  0  0  0  0
    0.3473  -20.9026    8.3870 O   0  0  0  0  0  0  0  0  0  0  0  0
    5.3740  -18.2410    7.4053 H   0  0  0  0  0  0  0  0  0  0  0  0
    5.3329  -19.0974   10.0719 H   0  0  0  0  0  0  0  0  0  0  0  0
    8.1323  -18.2251    8.0717 H   0  0  0  0  0  0  0  0  0  0  0  0
    9.7561  -16.2606    8.6794 H   0  0  0  0  0  0  0  0  0  0  0  0
    5.4659  -15.1969    9.6947 H   0  0  0  0  0  0  0  0  0  0  0  0
    1.9518  -17.3910   10.8991 H   0  0  0  0  0  0  0  0  0  0  0  0
    0.9890  -18.2123    9.8021 H   0  0  0  0  0  0  0  0  0  0  0  0
    2.6604  -19.3232   12.2179 H   0  0  0  0  0  0  0  0  0  0  0  0
    0.9055  -19.1289   12.2110 H   0  0  0  0  0  0  0  0  0  0  0  0
    2.2797  -21.8885    9.5679 H   0  0  0  0  0  0  0  0  0  0  0  0
    3.5380  -21.0248   10.4540 H   0  0  0  0  0  0  0  0  0  0  0  0
    3.2164  -20.0170    8.2465 H   0  0  0  0  0  0  0  0  0  0  0  0
   -0.9560  -18.6061    4.9148 H   0  0  0  0  0  0  0  0  0  0  0  0
   -2.7941  -20.2181    4.3475 H   0  0  0  0  0  0  0  0  0  0  0  0
   -3.1829  -22.2246    5.7500 H   0  0  0  0  0  0  0  0  0  0  0  0
   -1.7378  -22.6645    7.7462 H   0  0  0  0  0  0  0  0  0  0  0  0
  1  2  2  0
  2  3  1  0
  3  4  1  0
  3  5  1  0
  5  6  1  0
  6  7  2  0
  7  8  1  0
  8  9  1  0
  2 10  1  0
 10 11  1  0
 11 12  1  0
 12 13  1  0
 13 14  1  0
 14 15  1  0
 15 16  1  0
 16 17  2  0
 17 18  1  0
 18 19  2  0
 19 20  1  0
 20 21  2  0
 21 22  1  0
 22 23  2  0
 23 24  1  0
  9  5  2  0
 15 10  1  0
 24 16  1  0
 23 18  1  0
  3 25  1  0
  4 26  1  0
  6 27  1  0
  7 28  1  0
  9 29  1  0
 11 30  1  0
 11 31  1  0
 12 32  1  0
 12 33  1  0
 14 34  1  0
 14 35  1  0
 15 36  1  0
 19 37  1  0
 20 38  1  0
 21 39  1  0
 22 40  1  0
M  END
>  <Energy>  (92) 
217.57801810116257

>  <compound_id>  (92) 
11152

>  <target_id>  (92) 
1

>  <reference_id>  (92) 
66

>  <inspiration_ids>  (92) 
[2, 66]

>  <energy_score>  (92) 
20.05839259175974

>  <distance_score>  (92) 
13.34961632904988

>  <path>  (92) 
/opt/xchem-fragalysis-2/maxwin/BulkDock/SCRATCH/511014/C11152-P66/C11152-P66.minimised.mol

>  <scratch_subdir>  (92) 
/opt/xchem-fragalysis-2/maxwin/BulkDock/SCRATCH/511014/C11152-P66

>  <fragmenstein_runtime>  (92) 
20.267353534698486

>  <fragmenstein_outcome>  (92) 
too moved

>  <fragmenstein_mode>  (92) 
expansion

>  <fragmenstein_error>  (92) 


$$$$
C11153-P2
     RDKit          3D

 45 47  0  0  0  0  0  0  0  0999 V2000
   -9.9571  -24.3626   10.7896 C   0  0  0  0  0  0  0  0  0  0  0  0
   -9.3571  -23.0322   10.6026 C   0  0  0  0  0  0  0  0  0  0  0  0
   -9.5590  -22.1937    9.6102 N   0  0  0  0  0  0  0  0  0  0  0  0
   -8.6414  -21.2204    9.8694 C   0  0  0  0  0  0  0  0  0  0  0  0
   -8.2929  -20.1024    9.1874 C   0  0  0  0  0  0  0  0  0  0  0  0
   -7.0922  -19.4095    9.6749 C   0  0  0  0  0  0  0  0  0  0  0  0
   -5.8983  -19.8553   10.6295 C   0  0  0  0  0  0  0  0  0  0  0  0
   -3.9748  -19.5181    9.4827 C   0  0  0  0  0  0  0  0  0  0  0  0
   -3.9443  -18.3954    9.0896 O   0  0  0  0  0  0  0  0  0  0  0  0
   -2.4820  -20.3102    8.9810 N   0  0  0  0  0  0  0  0  0  0  0  0
   -2.6237  -20.9565    7.6855 C   0  0  0  0  0  0  0  0  0  0  0  0
   -0.9059  -19.6815    8.1221 C   0  0  0  0  0  0  0  0  0  0  0  0
    0.6445  -18.4674    8.4239 C   0  0  0  0  0  0  0  0  0  0  0  0
    1.4120  -18.6177    7.0966 C   0  0  0  0  0  0  0  0  0  0  0  0
    1.0370  -16.7323    8.8060 N   0  0  0  0  0  0  0  0  0  0  0  0
    2.6605  -16.0186    9.0400 C   0  0  0  0  0  0  0  0  0  0  0  0
    3.1869  -14.3019    9.4270 C   0  0  0  0  0  0  0  0  0  0  0  0
    2.8848  -12.9371    9.2736 C   0  0  0  0  0  0  0  0  0  0  0  0
    2.2689  -12.5188   10.5508 C   0  0  0  0  0  0  0  0  0  0  0  0
    3.4580  -11.5186   10.3492 S   0  0  0  0  0  0  0  0  0  0  0  0
    4.2572  -13.5535    9.9925 C   0  0  0  0  0  0  0  0  0  0  0  0
   -6.8375  -20.6468   11.5447 C   0  0  0  0  0  0  0  0  0  0  0  0
   -7.9636  -21.4305   11.0384 C   0  0  0  0  0  0  0  0  0  0  0  0
   -8.4531  -22.6140   11.5480 O   0  0  0  0  0  0  0  0  0  0  0  0
   -9.1909  -25.1405   10.7186 H   0  0  0  0  0  0  0  0  0  0  0  0
  -10.7166  -24.5579   10.0265 H   0  0  0  0  0  0  0  0  0  0  0  0
  -10.4342  -24.4336   11.7719 H   0  0  0  0  0  0  0  0  0  0  0  0
   -8.8330  -19.7632    8.3114 H   0  0  0  0  0  0  0  0  0  0  0  0
   -6.7706  -18.5919    9.0101 H   0  0  0  0  0  0  0  0  0  0  0  0
   -2.6576  -20.3804    6.7742 H   0  0  0  0  0  0  0  0  0  0  0  0
   -3.4182  -21.6687    7.7964 H   0  0  0  0  0  0  0  0  0  0  0  0
   -1.8231  -21.7028    7.5586 H   0  0  0  0  0  0  0  0  0  0  0  0
   -0.3532  -20.5877    7.8441 H   0  0  0  0  0  0  0  0  0  0  0  0
   -1.3202  -19.1130    7.2776 H   0  0  0  0  0  0  0  0  0  0  0  0
    1.2225  -18.9866    9.2029 H   0  0  0  0  0  0  0  0  0  0  0  0
    1.4485  -19.6650    6.7814 H   0  0  0  0  0  0  0  0  0  0  0  0
    2.4489  -18.2817    7.1894 H   0  0  0  0  0  0  0  0  0  0  0  0
    0.9261  -18.0372    6.3059 H   0  0  0  0  0  0  0  0  0  0  0  0
    0.6190  -16.6835    9.7476 H   0  0  0  0  0  0  0  0  0  0  0  0
    3.1778  -16.2734    8.1108 H   0  0  0  0  0  0  0  0  0  0  0  0
    3.0645  -16.6271    9.8550 H   0  0  0  0  0  0  0  0  0  0  0  0
    2.5344  -12.4655    8.3563 H   0  0  0  0  0  0  0  0  0  0  0  0
    1.2978  -12.2411   10.9689 H   0  0  0  0  0  0  0  0  0  0  0  0
    5.1758  -13.8620   10.4584 H   0  0  0  0  0  0  0  0  0  0  0  0
   -6.4493  -21.2253   12.3595 H   0  0  0  0  0  0  0  0  0  0  0  0
  1  2  1  0
  2  3  2  0
  3  4  1  0
  4  5  2  0
  5  6  1  0
  6  7  2  0
  7  8  1  0
  8  9  2  0
  8 10  1  0
 10 11  1  0
 10 12  1  0
 12 13  1  0
 13 14  1  0
 13 15  1  0
 15 16  1  0
 16 17  1  0
 17 18  1  0
 18 19  2  0
 19 20  1  0
 20 21  1  0
  7 22  1  0
 22 23  2  0
 23 24  1  0
 24  2  1  0
 23  4  1  0
 21 17  2  0
  1 25  1  0
  1 26  1  0
  1 27  1  0
  5 28  1  0
  6 29  1  0
 11 30  1  0
 11 31  1  0
 11 32  1  0
 12 33  1  0
 12 34  1  0
 13 35  1  0
 14 36  1  0
 14 37  1  0
 14 38  1  0
 15 39  1  0
 16 40  1  0
 16 41  1  0
 18 42  1  0
 19 43  1  0
 21 44  1  0
 22 45  1  0
M  END
>  <Energy>  (93) 
913.39847656119605

>  <compound_id>  (93) 
11153

>  <target_id>  (93) 
1

>  <reference_id>  (93) 
2

>  <inspiration_ids>  (93) 
[2, 66]

>  <energy_score>  (93) 
832.1009887875013

>  <distance_score>  (93) 
10.96624510902663

>  <path>  (93) 
/opt/xchem-fragalysis-2/maxwin/BulkDock/SCRATCH/511014/C11153-P2/C11153-P2.minimised.mol

>  <scratch_subdir>  (93) 
/opt/xchem-fragalysis-2/maxwin/BulkDock/SCRATCH/511014/C11153-P2

>  <fragmenstein_runtime>  (93) 
17.299647092819214

>  <fragmenstein_outcome>  (93) 
too moved

>  <fragmenstein_mode>  (93) 
expansion

>  <fragmenstein_error>  (93) 


$$$$
C11153-P66
     RDKit          3D

 45 47  0  0  0  0  0  0  0  0999 V2000
   -8.9065  -19.8879    8.0548 C   0  0  0  0  0  0  0  0  0  0  0  0
   -7.8047  -18.8532    8.3228 C   0  0  0  0  0  0  0  0  0  0  0  0
   -7.4240  -17.6769    7.8016 N   0  0  0  0  0  0  0  0  0  0  0  0
   -6.1946  -17.3362    8.2799 C   0  0  0  0  0  0  0  0  0  0  0  0
   -4.4385  -16.5035    8.0754 C   0  0  0  0  0  0  0  0  0  0  0  0
   -2.9991  -16.5591    8.3976 C   0  0  0  0  0  0  0  0  0  0  0  0
   -2.4741  -17.3832    9.1697 C   0  0  0  0  0  0  0  0  0  0  0  0
   -1.7631  -15.8235   10.1134 C   0  0  0  0  0  0  0  0  0  0  0  0
   -2.6562  -15.2406   10.6583 O   0  0  0  0  0  0  0  0  0  0  0  0
   -0.1207  -15.3901   10.3109 N   0  0  0  0  0  0  0  0  0  0  0  0
    0.4610  -16.1141   11.4041 C   0  0  0  0  0  0  0  0  0  0  0  0
    0.6985  -13.9176   11.2373 C   0  0  0  0  0  0  0  0  0  0  0  0
    1.7200  -12.1477   11.1368 C   0  0  0  0  0  0  0  0  0  0  0  0
    0.5151  -11.3683   11.4014 C   0  0  0  0  0  0  0  0  0  0  0  0
    3.0331  -10.8356   11.6619 N   0  0  0  0  0  0  0  0  0  0  0  0
    4.0590  -10.1487   13.2131 C   0  0  0  0  0  0  0  0  0  0  0  0
    4.5391   -8.2286   13.5281 C   0  0  0  0  0  0  0  0  0  0  0  0
    5.8199   -7.5619   14.0449 C   0  0  0  0  0  0  0  0  0  0  0  0
    5.5467   -6.3911   15.1860 C   0  0  0  0  0  0  0  0  0  0  0  0
    3.9933   -5.7071   14.7041 S   0  0  0  0  0  0  0  0  0  0  0  0
    4.5249   -6.8330   12.9691 C   0  0  0  0  0  0  0  0  0  0  0  0
   -3.8846  -18.4208    9.1441 C   0  0  0  0  0  0  0  0  0  0  0  0
   -5.8247  -18.2777    9.1879 C   0  0  0  0  0  0  0  0  0  0  0  0
   -6.9152  -19.1430    9.3297 O   0  0  0  0  0  0  0  0  0  0  0  0
   -8.9349  -20.1961    7.0054 H   0  0  0  0  0  0  0  0  0  0  0  0
   -9.8960  -19.5111    8.3210 H   0  0  0  0  0  0  0  0  0  0  0  0
   -8.7619  -20.7834    8.6639 H   0  0  0  0  0  0  0  0  0  0  0  0
   -4.5655  -15.3554    8.2204 H   0  0  0  0  0  0  0  0  0  0  0  0
   -2.1398  -16.0853    8.0231 H   0  0  0  0  0  0  0  0  0  0  0  0
    1.4676  -16.3627   11.0751 H   0  0  0  0  0  0  0  0  0  0  0  0
    0.0276  -17.1119   11.4312 H   0  0  0  0  0  0  0  0  0  0  0  0
    0.4070  -15.6397   12.3736 H   0  0  0  0  0  0  0  0  0  0  0  0
   -0.2663  -13.4712   11.1912 H   0  0  0  0  0  0  0  0  0  0  0  0
    1.3573  -14.2414   10.4881 H   0  0  0  0  0  0  0  0  0  0  0  0
    2.3625  -12.3122   10.2851 H   0  0  0  0  0  0  0  0  0  0  0  0
    0.7494  -10.3288   11.3213 H   0  0  0  0  0  0  0  0  0  0  0  0
   -0.2774  -11.6194   10.7200 H   0  0  0  0  0  0  0  0  0  0  0  0
    0.0792  -11.6723   12.3382 H   0  0  0  0  0  0  0  0  0  0  0  0
    2.5266   -9.9647   11.4831 H   0  0  0  0  0  0  0  0  0  0  0  0
    4.9997  -10.7377   13.2872 H   0  0  0  0  0  0  0  0  0  0  0  0
    3.5822  -10.5280   14.1091 H   0  0  0  0  0  0  0  0  0  0  0  0
    6.7348   -8.0843   14.1572 H   0  0  0  0  0  0  0  0  0  0  0  0
    6.1495   -6.1185   16.0428 H   0  0  0  0  0  0  0  0  0  0  0  0
    4.0498   -6.3776   12.1075 H   0  0  0  0  0  0  0  0  0  0  0  0
   -3.6552  -19.4926    9.1623 H   0  0  0  0  0  0  0  0  0  0  0  0
  1  2  1  0
  2  3  2  0
  3  4  1  0
  4  5  2  0
  5  6  1  0
  6  7  2  0
  7  8  1  0
  8  9  2  0
  8 10  1  0
 10 11  1  0
 10 12  1  0
 12 13  1  0
 13 14  1  0
 13 15  1  0
 15 16  1  0
 16 17  1  0
 17 18  1  0
 18 19  2  0
 19 20  1  0
 20 21  1  0
  7 22  1  0
 22 23  2  0
 23 24  1  0
 24  2  1  0
 23  4  1  0
 21 17  2  0
  1 25  1  0
  1 26  1  0
  1 27  1  0
  5 28  1  0
  6 29  1  0
 11 30  1  0
 11 31  1  0
 11 32  1  0
 12 33  1  0
 12 34  1  0
 13 35  1  0
 14 36  1  0
 14 37  1  0
 14 38  1  0
 15 39  1  0
 16 40  1  0
 16 41  1  0
 18 42  1  0
 19 43  1  0
 21 44  1  0
 22 45  1  0
M  END
>  <Energy>  (94) 
1182.7966576565989

>  <compound_id>  (94) 
11153

>  <target_id>  (94) 
1

>  <reference_id>  (94) 
66

>  <inspiration_ids>  (94) 
[2, 66]

>  <energy_score>  (94) 
1101.4991698829122

>  <distance_score>  (94) 
8.199619355003794

>  <path>  (94) 
/opt/xchem-fragalysis-2/maxwin/BulkDock/SCRATCH/511014/C11153-P66/C11153-P66.minimised.mol

>  <scratch_subdir>  (94) 
/opt/xchem-fragalysis-2/maxwin/BulkDock/SCRATCH/511014/C11153-P66

>  <fragmenstein_runtime>  (94) 
17.307615280151367

>  <fragmenstein_outcome>  (94) 
too moved

>  <fragmenstein_mode>  (94) 
expansion

>  <fragmenstein_error>  (94) 


$$$$
C11154-P2
     RDKit          3D

 37 40  0  0  0  0  0  0  0  0999 V2000
    7.6528   -3.2607   15.3555 O   0  0  0  0  0  0  0  0  0  0  0  0
    8.4010   -4.2576   15.3414 C   0  0  0  0  0  0  0  0  0  0  0  0
    7.7669   -6.0882   15.4449 N   0  0  0  0  0  0  0  0  0  0  0  0
    5.9699   -6.8334   15.5138 C   0  0  0  0  0  0  0  0  0  0  0  0
    4.6129   -6.6053   14.7963 C   0  0  0  0  0  0  0  0  0  0  0  0
    4.6454   -7.4961   13.4694 C   0  0  0  0  0  0  0  0  0  0  0  0
    4.4784   -9.0387   13.7961 N   0  0  0  0  0  0  0  0  0  0  0  0
    3.6962  -10.2894   12.7555 C   0  0  0  0  0  0  0  0  0  0  0  0
    2.9942   -9.8654   11.4023 N   0  0  0  0  0  0  0  0  0  0  0  0
    2.0622  -10.8020   11.1161 C   0  0  0  0  0  0  0  0  0  0  0  0
    0.7528  -10.5241   11.2449 C   0  0  0  0  0  0  0  0  0  0  0  0
   -0.1324  -11.3653   11.9065 C   0  0  0  0  0  0  0  0  0  0  0  0
    0.1458  -12.6284   12.1335 C   0  0  0  0  0  0  0  0  0  0  0  0
    1.0890  -12.9474   11.2618 C   0  0  0  0  0  0  0  0  0  0  0  0
    2.4460  -12.0885   10.7808 C   0  0  0  0  0  0  0  0  0  0  0  0
    3.8675  -11.3001   11.2068 O   0  0  0  0  0  0  0  0  0  0  0  0
    5.6563   -8.7478   15.0987 C   0  0  0  0  0  0  0  0  0  0  0  0
   10.0960   -3.7317   15.1638 C   0  0  0  0  0  0  0  0  0  0  0  0
   11.3580   -4.1406   15.7863 C   0  0  0  0  0  0  0  0  0  0  0  0
   12.3692   -3.2028   15.7619 C   0  0  0  0  0  0  0  0  0  0  0  0
   11.8503   -1.7477   15.0776 S   0  0  0  0  0  0  0  0  0  0  0  0
   10.2669   -2.3588   14.9258 C   0  0  0  0  0  0  0  0  0  0  0  0
    8.5710   -6.7375   15.3241 H   0  0  0  0  0  0  0  0  0  0  0  0
    5.8028   -6.7593   16.5990 H   0  0  0  0  0  0  0  0  0  0  0  0
    3.8525   -7.0291   15.4657 H   0  0  0  0  0  0  0  0  0  0  0  0
    4.2744   -5.5698   14.6786 H   0  0  0  0  0  0  0  0  0  0  0  0
    4.1064   -7.0998   12.6091 H   0  0  0  0  0  0  0  0  0  0  0  0
    5.6773   -7.3698   13.1310 H   0  0  0  0  0  0  0  0  0  0  0  0
    0.7236   -9.4704   11.1231 H   0  0  0  0  0  0  0  0  0  0  0  0
   -0.9507  -10.9024   12.4178 H   0  0  0  0  0  0  0  0  0  0  0  0
   -0.2687  -13.3534   12.7970 H   0  0  0  0  0  0  0  0  0  0  0  0
    0.9481  -14.0377   11.1266 H   0  0  0  0  0  0  0  0  0  0  0  0
    6.5687   -9.2578   14.8278 H   0  0  0  0  0  0  0  0  0  0  0  0
    5.1741   -9.1655   15.9879 H   0  0  0  0  0  0  0  0  0  0  0  0
   11.5376   -5.0684   16.3093 H   0  0  0  0  0  0  0  0  0  0  0  0
   13.3737   -3.3114   16.1490 H   0  0  0  0  0  0  0  0  0  0  0  0
    9.4769   -1.6537   14.7016 H   0  0  0  0  0  0  0  0  0  0  0  0
  1  2  2  0
  2  3  1  0
  3  4  1  0
  4  5  1  0
  5  6  1  0
  6  7  1  0
  7  8  1  0
  8  9  2  0
  9 10  1  0
 10 11  2  0
 11 12  1  0
 12 13  2  0
 13 14  1  0
 14 15  2  0
 15 16  1  0
  7 17  1  0
  2 18  1  0
 18 19  1  0
 19 20  2  0
 20 21  1  0
 21 22  1  0
 17  4  1  0
 22 18  2  0
 16  8  1  0
 15 10  1  0
  3 23  1  0
  4 24  1  0
  5 25  1  0
  5 26  1  0
  6 27  1  0
  6 28  1  0
 11 29  1  0
 12 30  1  0
 13 31  1  0
 14 32  1  0
 17 33  1  0
 17 34  1  0
 19 35  1  0
 20 36  1  0
 22 37  1  0
M  END
>  <Energy>  (95) 
806.76652663215884

>  <compound_id>  (95) 
11154

>  <target_id>  (95) 
1

>  <reference_id>  (95) 
2

>  <inspiration_ids>  (95) 
[2, 66]

>  <energy_score>  (95) 
783.3725045853416

>  <distance_score>  (95) 
12.803392213280448

>  <path>  (95) 
/opt/xchem-fragalysis-2/maxwin/BulkDock/SCRATCH/511014/C11154-P2/C11154-P2.minimised.mol

>  <scratch_subdir>  (95) 
/opt/xchem-fragalysis-2/maxwin/BulkDock/SCRATCH/511014/C11154-P2

>  <fragmenstein_runtime>  (95) 
16.201242208480835

>  <fragmenstein_outcome>  (95) 
too moved

>  <fragmenstein_mode>  (95) 
expansion

>  <fragmenstein_error>  (95) 


$$$$
C11154-P66
     RDKit          3D

 37 40  0  0  0  0  0  0  0  0999 V2000
    2.2512  -15.4873   -1.6833 O   0  0  0  0  0  0  0  0  0  0  0  0
    1.6018  -14.8592   -0.9004 C   0  0  0  0  0  0  0  0  0  0  0  0
    0.3031  -15.1379   -0.3112 N   0  0  0  0  0  0  0  0  0  0  0  0
   -0.5872  -16.3421   -0.4192 C   0  0  0  0  0  0  0  0  0  0  0  0
    0.1162  -17.5708    0.1763 C   0  0  0  0  0  0  0  0  0  0  0  0
   -0.9941  -18.5389    0.5633 C   0  0  0  0  0  0  0  0  0  0  0  0
   -2.0853  -17.6745    0.9949 N   0  0  0  0  0  0  0  0  0  0  0  0
   -3.1924  -18.2747    1.5265 C   0  0  0  0  0  0  0  0  0  0  0  0
   -3.2735  -19.5008    2.0200 N   0  0  0  0  0  0  0  0  0  0  0  0
   -4.5857  -19.6589    2.3823 C   0  0  0  0  0  0  0  0  0  0  0  0
   -5.2769  -20.7558    2.9233 C   0  0  0  0  0  0  0  0  0  0  0  0
   -6.6584  -20.6362    3.1458 C   0  0  0  0  0  0  0  0  0  0  0  0
   -7.3263  -19.4399    2.8672 C   0  0  0  0  0  0  0  0  0  0  0  0
   -6.6434  -18.3326    2.3369 C   0  0  0  0  0  0  0  0  0  0  0  0
   -5.2783  -18.4950    2.1094 C   0  0  0  0  0  0  0  0  0  0  0  0
   -4.3886  -17.5922    1.5757 O   0  0  0  0  0  0  0  0  0  0  0  0
   -2.0279  -16.3964    0.2593 C   0  0  0  0  0  0  0  0  0  0  0  0
    2.3174  -13.6129   -0.3666 C   0  0  0  0  0  0  0  0  0  0  0  0
    3.7674  -13.4209   -0.5031 C   0  0  0  0  0  0  0  0  0  0  0  0
    4.2756  -12.2843    0.0908 C   0  0  0  0  0  0  0  0  0  0  0  0
    3.0393  -11.3707    0.7913 S   0  0  0  0  0  0  0  0  0  0  0  0
    1.8246  -12.5114    0.3227 C   0  0  0  0  0  0  0  0  0  0  0  0
    0.0942  -14.4294    0.3734 H   0  0  0  0  0  0  0  0  0  0  0  0
   -0.7152  -16.5088   -1.4964 H   0  0  0  0  0  0  0  0  0  0  0  0
    0.6728  -17.3004    1.0757 H   0  0  0  0  0  0  0  0  0  0  0  0
    0.8292  -18.0206   -0.5221 H   0  0  0  0  0  0  0  0  0  0  0  0
   -0.6554  -19.2157    1.3557 H   0  0  0  0  0  0  0  0  0  0  0  0
   -1.3009  -19.1336   -0.3057 H   0  0  0  0  0  0  0  0  0  0  0  0
   -4.7503  -21.6810    3.1323 H   0  0  0  0  0  0  0  0  0  0  0  0
   -7.2127  -21.4859    3.5400 H   0  0  0  0  0  0  0  0  0  0  0  0
   -8.3993  -19.3727    3.0444 H   0  0  0  0  0  0  0  0  0  0  0  0
   -7.1485  -17.4069    2.0884 H   0  0  0  0  0  0  0  0  0  0  0  0
   -2.7884  -16.3820   -0.5306 H   0  0  0  0  0  0  0  0  0  0  0  0
   -2.2171  -15.5497    0.9198 H   0  0  0  0  0  0  0  0  0  0  0  0
    4.4010  -14.1397   -1.0129 H   0  0  0  0  0  0  0  0  0  0  0  0
    5.3067  -11.9601    0.1301 H   0  0  0  0  0  0  0  0  0  0  0  0
    0.8037  -12.2930    0.5966 H   0  0  0  0  0  0  0  0  0  0  0  0
  1  2  2  0
  2  3  1  0
  3  4  1  0
  4  5  1  0
  5  6  1  0
  6  7  1  0
  7  8  1  0
  8  9  2  0
  9 10  1  0
 10 11  2  0
 11 12  1  0
 12 13  2  0
 13 14  1  0
 14 15  2  0
 15 16  1  0
  7 17  1  0
  2 18  1  0
 18 19  1  0
 19 20  2  0
 20 21  1  0
 21 22  1  0
 17  4  1  0
 22 18  2  0
 16  8  1  0
 15 10  1  0
  3 23  1  0
  4 24  1  0
  5 25  1  0
  5 26  1  0
  6 27  1  0
  6 28  1  0
 11 29  1  0
 12 30  1  0
 13 31  1  0
 14 32  1  0
 17 33  1  0
 17 34  1  0
 19 35  1  0
 20 36  1  0
 22 37  1  0
M  END
>  <Energy>  (96) 
1.3882825860913948

>  <compound_id>  (96) 
11154

>  <target_id>  (96) 
1

>  <reference_id>  (96) 
66

>  <inspiration_ids>  (96) 
[2, 66]

>  <energy_score>  (96) 
-22.005739460717848

>  <distance_score>  (96) 
15.597269253520983

>  <path>  (96) 
/opt/xchem-fragalysis-2/maxwin/BulkDock/SCRATCH/511014/C11154-P66/C11154-P66.minimised.mol

>  <scratch_subdir>  (96) 
/opt/xchem-fragalysis-2/maxwin/BulkDock/SCRATCH/511014/C11154-P66

>  <fragmenstein_runtime>  (96) 
18.328116178512573

>  <fragmenstein_outcome>  (96) 
too moved

>  <fragmenstein_mode>  (96) 
expansion

>  <fragmenstein_error>  (96) 


$$$$
C11155-P2
     RDKit          3D

 40 43  0  0  0  0  0  0  0  0999 V2000
    4.7385   -7.5696   13.0993 O   0  0  0  0  0  0  0  0  0  0  0  0
    4.0295   -7.6804   14.0405 C   0  0  0  0  0  0  0  0  0  0  0  0
    3.0776   -8.9764   14.5494 N   0  0  0  0  0  0  0  0  0  0  0  0
    2.6764  -10.7749   13.6662 C   0  0  0  0  0  0  0  0  0  0  0  0
    1.4176  -12.3091   14.2975 C   0  0  0  0  0  0  0  0  0  0  0  0
    0.4975  -13.8057   13.4057 C   0  0  0  0  0  0  0  0  0  0  0  0
   -0.9929  -13.8685   13.8417 N   0  0  0  0  0  0  0  0  0  0  0  0
   -2.1178  -14.8785   15.0902 C   0  0  0  0  0  0  0  0  0  0  0  0
   -2.5232  -16.5304   15.2209 N   0  0  0  0  0  0  0  0  0  0  0  0
   -3.9729  -17.3370   14.4352 C   0  0  0  0  0  0  0  0  0  0  0  0
   -4.9453  -18.7071   13.3721 C   0  0  0  0  0  0  0  0  0  0  0  0
   -6.1938  -18.7178   12.7776 C   0  0  0  0  0  0  0  0  0  0  0  0
   -6.4986  -17.4215   12.9902 C   0  0  0  0  0  0  0  0  0  0  0  0
   -5.8938  -16.0958   13.9556 C   0  0  0  0  0  0  0  0  0  0  0  0
   -4.6089  -16.0320   14.5243 C   0  0  0  0  0  0  0  0  0  0  0  0
   -3.8428  -14.7749   14.8491 O   0  0  0  0  0  0  0  0  0  0  0  0
   -0.4259  -12.1881   12.9528 C   0  0  0  0  0  0  0  0  0  0  0  0
    1.2180  -11.2298   12.2807 C   0  0  0  0  0  0  0  0  0  0  0  0
    3.8219   -6.2280   15.0140 C   0  0  0  0  0  0  0  0  0  0  0  0
    3.7684   -4.8866   14.4188 C   0  0  0  0  0  0  0  0  0  0  0  0
    3.5145   -3.8775   15.3152 C   0  0  0  0  0  0  0  0  0  0  0  0
    3.1189   -4.5005   16.8459 S   0  0  0  0  0  0  0  0  0  0  0  0
    3.3780   -6.1103   16.3279 C   0  0  0  0  0  0  0  0  0  0  0  0
    2.6935   -8.7695   15.3795 H   0  0  0  0  0  0  0  0  0  0  0  0
    3.7942  -10.8384   13.5929 H   0  0  0  0  0  0  0  0  0  0  0  0
    1.5482  -12.3338   15.3901 H   0  0  0  0  0  0  0  0  0  0  0  0
    2.0409  -13.0625   14.6993 H   0  0  0  0  0  0  0  0  0  0  0  0
    0.8426  -14.7712   13.1100 H   0  0  0  0  0  0  0  0  0  0  0  0
    0.5983  -13.6580   12.3057 H   0  0  0  0  0  0  0  0  0  0  0  0
   -4.3166  -19.2210   12.5099 H   0  0  0  0  0  0  0  0  0  0  0  0
   -6.4709  -19.3549   11.9493 H   0  0  0  0  0  0  0  0  0  0  0  0
   -6.5019  -17.1342   11.9044 H   0  0  0  0  0  0  0  0  0  0  0  0
   -6.4343  -15.1651   14.0308 H   0  0  0  0  0  0  0  0  0  0  0  0
   -0.9474  -11.3321   13.3380 H   0  0  0  0  0  0  0  0  0  0  0  0
   -0.5944  -12.3934   11.8792 H   0  0  0  0  0  0  0  0  0  0  0  0
    1.6116  -11.6875   11.3518 H   0  0  0  0  0  0  0  0  0  0  0  0
    0.7638  -10.3679   11.7735 H   0  0  0  0  0  0  0  0  0  0  0  0
    3.9216   -4.6973   13.3601 H   0  0  0  0  0  0  0  0  0  0  0  0
    3.4772   -2.8139   15.1218 H   0  0  0  0  0  0  0  0  0  0  0  0
    3.1251   -6.8798   17.0381 H   0  0  0  0  0  0  0  0  0  0  0  0
  1  2  2  0
  2  3  1  0
  3  4  1  0
  4  5  1  0
  5  6  1  0
  6  7  1  0
  7  8  1  0
  8  9  2  0
  9 10  1  0
 10 11  2  0
 11 12  1  0
 12 13  2  0
 13 14  1  0
 14 15  2  0
 15 16  1  0
  7 17  1  0
 17 18  1  0
  2 19  1  0
 19 20  1  0
 20 21  2  0
 21 22  1  0
 22 23  1  0
 18  4  1  0
 23 19  2  0
 16  8  1  0
 15 10  1  0
  3 24  1  0
  4 25  1  0
  5 26  1  0
  5 27  1  0
  6 28  1  0
  6 29  1  0
 11 30  1  0
 12 31  1  0
 13 32  1  0
 14 33  1  0
 17 34  1  0
 17 35  1  0
 18 36  1  0
 18 37  1  0
 20 38  1  0
 21 39  1  0
 23 40  1  0
M  END
>  <Energy>  (97) 
1338.6486573367845

>  <compound_id>  (97) 
11155

>  <target_id>  (97) 
1

>  <reference_id>  (97) 
2

>  <inspiration_ids>  (97) 
[2, 66]

>  <energy_score>  (97) 
1331.0799532618657

>  <distance_score>  (97) 
10.451542998423292

>  <path>  (97) 
/opt/xchem-fragalysis-2/maxwin/BulkDock/SCRATCH/511014/C11155-P2/C11155-P2.minimised.mol

>  <scratch_subdir>  (97) 
/opt/xchem-fragalysis-2/maxwin/BulkDock/SCRATCH/511014/C11155-P2

>  <fragmenstein_runtime>  (97) 
20.20910120010376

>  <fragmenstein_outcome>  (97) 
too moved

>  <fragmenstein_mode>  (97) 
expansion

>  <fragmenstein_error>  (97) 


$$$$
C11155-P66
     RDKit          3D

 40 43  0  0  0  0  0  0  0  0999 V2000
    4.2938  -19.9681    9.2588 O   0  0  0  0  0  0  0  0  0  0  0  0
    4.0517  -18.8996    8.7804 C   0  0  0  0  0  0  0  0  0  0  0  0
    2.8388  -18.3836    8.2004 N   0  0  0  0  0  0  0  0  0  0  0  0
    1.4893  -18.9683    8.1009 C   0  0  0  0  0  0  0  0  0  0  0  0
    1.4005  -20.4814    7.9153 C   0  0  0  0  0  0  0  0  0  0  0  0
   -0.0599  -20.9446    8.0632 C   0  0  0  0  0  0  0  0  0  0  0  0
   -1.0244  -20.2144    7.2219 N   0  0  0  0  0  0  0  0  0  0  0  0
   -2.3611  -20.5027    7.4621 C   0  0  0  0  0  0  0  0  0  0  0  0
   -3.2067  -19.9007    8.3905 N   0  0  0  0  0  0  0  0  0  0  0  0
   -4.6487  -20.1538    8.0943 C   0  0  0  0  0  0  0  0  0  0  0  0
   -6.5835  -19.2318    8.2219 C   0  0  0  0  0  0  0  0  0  0  0  0
   -8.0419  -20.2293    7.3567 C   0  0  0  0  0  0  0  0  0  0  0  0
   -7.5532  -21.1432    5.7620 C   0  0  0  0  0  0  0  0  0  0  0  0
   -5.7365  -21.5892    5.3735 C   0  0  0  0  0  0  0  0  0  0  0  0
   -4.2255  -20.9151    6.2940 C   0  0  0  0  0  0  0  0  0  0  0  0
   -2.8935  -21.2029    6.3647 O   0  0  0  0  0  0  0  0  0  0  0  0
   -0.7771  -18.7847    6.9648 C   0  0  0  0  0  0  0  0  0  0  0  0
    0.6927  -18.3543    6.9539 C   0  0  0  0  0  0  0  0  0  0  0  0
    5.1456  -17.8710    8.8739 C   0  0  0  0  0  0  0  0  0  0  0  0
    6.5635  -18.1727    8.8657 C   0  0  0  0  0  0  0  0  0  0  0  0
    7.3845  -17.0811    9.0479 C   0  0  0  0  0  0  0  0  0  0  0  0
    6.4775  -15.6843    9.3439 S   0  0  0  0  0  0  0  0  0  0  0  0
    4.9905  -16.5129    9.1084 C   0  0  0  0  0  0  0  0  0  0  0  0
    2.9723  -17.4093    7.9705 H   0  0  0  0  0  0  0  0  0  0  0  0
    1.0219  -18.6973    9.0543 H   0  0  0  0  0  0  0  0  0  0  0  0
    2.0073  -21.0037    8.6625 H   0  0  0  0  0  0  0  0  0  0  0  0
    1.7928  -20.7713    6.9325 H   0  0  0  0  0  0  0  0  0  0  0  0
   -0.1087  -22.0105    7.8066 H   0  0  0  0  0  0  0  0  0  0  0  0
   -0.3125  -20.8714    9.1207 H   0  0  0  0  0  0  0  0  0  0  0  0
   -6.6825  -18.1991    8.4968 H   0  0  0  0  0  0  0  0  0  0  0  0
   -9.0660  -19.8772    7.4553 H   0  0  0  0  0  0  0  0  0  0  0  0
   -8.3424  -21.5460    5.1274 H   0  0  0  0  0  0  0  0  0  0  0  0
   -5.4823  -22.1834    4.4945 H   0  0  0  0  0  0  0  0  0  0  0  0
   -1.3155  -18.1494    7.6725 H   0  0  0  0  0  0  0  0  0  0  0  0
   -1.2020  -18.5388    5.9824 H   0  0  0  0  0  0  0  0  0  0  0  0
    0.7460  -17.2605    7.0037 H   0  0  0  0  0  0  0  0  0  0  0  0
    1.1490  -18.6366    5.9957 H   0  0  0  0  0  0  0  0  0  0  0  0
    6.9461  -19.1777    8.7264 H   0  0  0  0  0  0  0  0  0  0  0  0
    8.4651  -17.0601    9.0612 H   0  0  0  0  0  0  0  0  0  0  0  0
    4.0686  -15.9605    9.2103 H   0  0  0  0  0  0  0  0  0  0  0  0
  1  2  2  0
  2  3  1  0
  3  4  1  0
  4  5  1  0
  5  6  1  0
  6  7  1  0
  7  8  1  0
  8  9  2  0
  9 10  1  0
 10 11  2  0
 11 12  1  0
 12 13  2  0
 13 14  1  0
 14 15  2  0
 15 16  1  0
  7 17  1  0
 17 18  1  0
  2 19  1  0
 19 20  1  0
 20 21  2  0
 21 22  1  0
 22 23  1  0
 18  4  1  0
 23 19  2  0
 16  8  1  0
 15 10  1  0
  3 24  1  0
  4 25  1  0
  5 26  1  0
  5 27  1  0
  6 28  1  0
  6 29  1  0
 11 30  1  0
 12 31  1  0
 13 32  1  0
 14 33  1  0
 17 34  1  0
 17 35  1  0
 18 36  1  0
 18 37  1  0
 20 38  1  0
 21 39  1  0
 23 40  1  0
M  END
>  <Energy>  (98) 
665.94248266021054

>  <compound_id>  (98) 
11155

>  <target_id>  (98) 
1

>  <reference_id>  (98) 
66

>  <inspiration_ids>  (98) 
[2, 66]

>  <energy_score>  (98) 
658.3737785852795

>  <distance_score>  (98) 
12.771263643922572

>  <path>  (98) 
/opt/xchem-fragalysis-2/maxwin/BulkDock/SCRATCH/511014/C11155-P66/C11155-P66.minimised.mol

>  <scratch_subdir>  (98) 
/opt/xchem-fragalysis-2/maxwin/BulkDock/SCRATCH/511014/C11155-P66

>  <fragmenstein_runtime>  (98) 
25.787479162216187

>  <fragmenstein_outcome>  (98) 
too moved

>  <fragmenstein_mode>  (98) 
expansion

>  <fragmenstein_error>  (98) 


$$$$
C11156-P2
     RDKit          3D

 35 38  0  0  0  0  0  0  0  0999 V2000
    7.4317   -8.1594   15.0257 O   0  0  0  0  0  0  0  0  0  0  0  0
    7.7799   -9.4114   15.1903 C   0  0  0  0  0  0  0  0  0  0  0  0
    6.3362  -10.6220   14.2159 N   0  0  0  0  0  0  0  0  0  0  0  0
    4.5606  -10.2578   13.3405 C   0  0  0  0  0  0  0  0  0  0  0  0
    3.2294  -10.5903   11.9738 C   0  0  0  0  0  0  0  0  0  0  0  0
    1.5363  -11.3082   11.6236 C   0  0  0  0  0  0  0  0  0  0  0  0
    0.4979  -12.1932   12.6102 C   0  0  0  0  0  0  0  0  0  0  0  0
   -0.4441  -13.8407   12.6200 C   0  0  0  0  0  0  0  0  0  0  0  0
   -1.9217  -14.4157   12.0195 N   0  0  0  0  0  0  0  0  0  0  0  0
   -3.3776  -14.1811   13.3611 C   0  0  0  0  0  0  0  0  0  0  0  0
   -4.7443  -14.4727   13.6273 C   0  0  0  0  0  0  0  0  0  0  0  0
   -5.1816  -14.9442   14.8990 C   0  0  0  0  0  0  0  0  0  0  0  0
   -4.3290  -15.1812   16.0062 C   0  0  0  0  0  0  0  0  0  0  0  0
   -2.9472  -14.9111   16.0054 C   0  0  0  0  0  0  0  0  0  0  0  0
   -2.4526  -14.3692   14.8057 C   0  0  0  0  0  0  0  0  0  0  0  0
   -0.8976  -14.0608   14.0906 O   0  0  0  0  0  0  0  0  0  0  0  0
    1.5817  -11.7722   13.9049 C   0  0  0  0  0  0  0  0  0  0  0  0
    3.2936  -10.7958   14.2290 C   0  0  0  0  0  0  0  0  0  0  0  0
    9.2869   -9.4630   16.4937 C   0  0  0  0  0  0  0  0  0  0  0  0
    9.8312   -7.7035   15.6630 C   0  0  0  0  0  0  0  0  0  0  0  0
   10.7524   -6.5092   16.8200 C   0  0  0  0  0  0  0  0  0  0  0  0
    9.5947   -6.4954   19.1182 S   0  0  0  0  0  0  0  0  0  0  0  0
    8.8871   -8.9132   18.4204 C   0  0  0  0  0  0  0  0  0  0  0  0
    6.6465  -11.5352   14.2633 H   0  0  0  0  0  0  0  0  0  0  0  0
    3.6164  -10.8816   10.9406 H   0  0  0  0  0  0  0  0  0  0  0  0
    1.7632  -11.9835   10.7953 H   0  0  0  0  0  0  0  0  0  0  0  0
   -5.4388  -14.5396   12.8271 H   0  0  0  0  0  0  0  0  0  0  0  0
   -6.2367  -15.2013   15.0019 H   0  0  0  0  0  0  0  0  0  0  0  0
   -4.7700  -15.5965   16.9124 H   0  0  0  0  0  0  0  0  0  0  0  0
   -2.2994  -15.1219   16.8436 H   0  0  0  0  0  0  0  0  0  0  0  0
    1.5200  -12.6068   14.6245 H   0  0  0  0  0  0  0  0  0  0  0  0
    3.6929  -11.1255   15.2281 H   0  0  0  0  0  0  0  0  0  0  0  0
    9.2349   -7.3905   14.8545 H   0  0  0  0  0  0  0  0  0  0  0  0
   11.2182   -5.4943   16.6197 H   0  0  0  0  0  0  0  0  0  0  0  0
    8.0735   -9.2266   19.0803 H   0  0  0  0  0  0  0  0  0  0  0  0
  1  2  2  0
  2  3  1  0
  3  4  1  0
  4  5  2  0
  5  6  1  0
  6  7  2  0
  7  8  1  0
  8  9  2  0
  9 10  1  0
 10 11  2  0
 11 12  1  0
 12 13  2  0
 13 14  1  0
 14 15  2  0
 15 16  1  0
  7 17  1  0
 17 18  2  0
  2 19  1  0
 19 20  1  0
 20 21  2  0
 21 22  1  0
 22 23  1  0
 18  4  1  0
 23 19  2  0
 16  8  1  0
 15 10  1  0
  3 24  1  0
  5 25  1  0
  6 26  1  0
 11 27  1  0
 12 28  1  0
 13 29  1  0
 14 30  1  0
 17 31  1  0
 18 32  1  0
 20 33  1  0
 21 34  1  0
 23 35  1  0
M  END
>  <Energy>  (99) 
2055.1883076047116

>  <compound_id>  (99) 
11156

>  <target_id>  (99) 
1

>  <reference_id>  (99) 
2

>  <inspiration_ids>  (99) 
[2, 66]

>  <energy_score>  (99) 
1964.2538218657496

>  <distance_score>  (99) 
10.624587533982819

>  <path>  (99) 
/opt/xchem-fragalysis-2/maxwin/BulkDock/SCRATCH/511014/C11156-P2/C11156-P2.minimised.mol

>  <scratch_subdir>  (99) 
/opt/xchem-fragalysis-2/maxwin/BulkDock/SCRATCH/511014/C11156-P2

>  <fragmenstein_runtime>  (99) 
16.603357553482056

>  <fragmenstein_outcome>  (99) 
too moved

>  <fragmenstein_mode>  (99) 
expansion

>  <fragmenstein_error>  (99) 


$$$$
C11156-P66
     RDKit          3D

 35 38  0  0  0  0  0  0  0  0999 V2000
    3.6807  -17.6657    5.5920 O   0  0  0  0  0  0  0  0  0  0  0  0
    3.5008  -17.8749    6.7559 C   0  0  0  0  0  0  0  0  0  0  0  0
    2.3799  -18.4735    7.4440 N   0  0  0  0  0  0  0  0  0  0  0  0
    1.1240  -18.9051    6.9666 C   0  0  0  0  0  0  0  0  0  0  0  0
    0.6384  -18.6215    5.7007 C   0  0  0  0  0  0  0  0  0  0  0  0
   -0.7684  -18.5440    5.4668 C   0  0  0  0  0  0  0  0  0  0  0  0
   -1.6893  -18.8073    6.4758 C   0  0  0  0  0  0  0  0  0  0  0  0
   -3.1301  -18.5366    6.3524 C   0  0  0  0  0  0  0  0  0  0  0  0
   -4.3580  -19.3636    5.2918 N   0  0  0  0  0  0  0  0  0  0  0  0
   -6.2456  -18.5386    5.4766 C   0  0  0  0  0  0  0  0  0  0  0  0
   -7.7576  -19.3033    4.9569 C   0  0  0  0  0  0  0  0  0  0  0  0
   -8.7700  -19.8932    5.9360 C   0  0  0  0  0  0  0  0  0  0  0  0
   -8.7083  -19.6978    7.4491 C   0  0  0  0  0  0  0  0  0  0  0  0
   -7.6318  -18.6896    8.2005 C   0  0  0  0  0  0  0  0  0  0  0  0
   -6.3380  -17.9243    7.4120 C   0  0  0  0  0  0  0  0  0  0  0  0
   -4.3043  -17.4841    7.6440 O   0  0  0  0  0  0  0  0  0  0  0  0
   -1.1596  -19.5172    7.5287 C   0  0  0  0  0  0  0  0  0  0  0  0
    0.2253  -19.5053    7.8284 C   0  0  0  0  0  0  0  0  0  0  0  0
    4.5461  -17.3565    7.7010 C   0  0  0  0  0  0  0  0  0  0  0  0
    4.3446  -16.4917    8.8436 C   0  0  0  0  0  0  0  0  0  0  0  0
    5.5295  -16.0115    9.3671 C   0  0  0  0  0  0  0  0  0  0  0  0
    6.9020  -16.6886    8.6185 S   0  0  0  0  0  0  0  0  0  0  0  0
    5.9111  -17.4866    7.4698 C   0  0  0  0  0  0  0  0  0  0  0  0
    2.6065  -18.5667    8.4263 H   0  0  0  0  0  0  0  0  0  0  0  0
    1.3141  -18.3081    4.9065 H   0  0  0  0  0  0  0  0  0  0  0  0
   -1.1114  -18.1846    4.4968 H   0  0  0  0  0  0  0  0  0  0  0  0
   -7.7101  -19.6832    3.9337 H   0  0  0  0  0  0  0  0  0  0  0  0
   -9.5422  -20.5506    5.5389 H   0  0  0  0  0  0  0  0  0  0  0  0
   -9.3641  -20.2745    8.0991 H   0  0  0  0  0  0  0  0  0  0  0  0
   -7.3588  -19.1668    9.1369 H   0  0  0  0  0  0  0  0  0  0  0  0
   -1.8529  -20.0337    8.1799 H   0  0  0  0  0  0  0  0  0  0  0  0
    0.5509  -19.9100    8.7825 H   0  0  0  0  0  0  0  0  0  0  0  0
    3.3695  -16.1608    9.1812 H   0  0  0  0  0  0  0  0  0  0  0  0
    5.6846  -15.2391   10.1039 H   0  0  0  0  0  0  0  0  0  0  0  0
    6.3792  -18.0239    6.6543 H   0  0  0  0  0  0  0  0  0  0  0  0
  1  2  2  0
  2  3  1  0
  3  4  1  0
  4  5  2  0
  5  6  1  0
  6  7  2  0
  7  8  1  0
  8  9  2  0
  9 10  1  0
 10 11  2  0
 11 12  1  0
 12 13  2  0
 13 14  1  0
 14 15  2  0
 15 16  1  0
  7 17  1  0
 17 18  2  0
  2 19  1  0
 19 20  1  0
 20 21  2  0
 21 22  1  0
 22 23  1  0
 18  4  1  0
 23 19  2  0
 16  8  1  0
 15 10  1  0
  3 24  1  0
  5 25  1  0
  6 26  1  0
 11 27  1  0
 12 28  1  0
 13 29  1  0
 14 30  1  0
 17 31  1  0
 18 32  1  0
 20 33  1  0
 21 34  1  0
 23 35  1  0
M  END
>  <Energy>  (100) 
856.3415287565017

>  <compound_id>  (100) 
11156

>  <target_id>  (100) 
1

>  <reference_id>  (100) 
66

>  <inspiration_ids>  (100) 
[2, 66]

>  <energy_score>  (100) 
765.4070430175087

>  <distance_score>  (100) 
13.050395737685562

>  <path>  (100) 
/opt/xchem-fragalysis-2/maxwin/BulkDock/SCRATCH/511014/C11156-P66/C11156-P66.minimised.mol

>  <scratch_subdir>  (100) 
/opt/xchem-fragalysis-2/maxwin/BulkDock/SCRATCH/511014/C11156-P66

>  <fragmenstein_runtime>  (100) 
19.51684832572937

>  <fragmenstein_outcome>  (100) 
too moved

>  <fragmenstein_mode>  (100) 
expansion

>  <fragmenstein_error>  (100) 


$$$$
C11157-P2
     RDKit          3D

 39 42  0  0  0  0  0  0  0  0999 V2000
    0.1899  -12.0780   13.0805 O   0  0  0  0  0  0  0  0  0  0  0  0
    0.7904  -12.0436   12.0247 C   0  0  0  0  0  0  0  0  0  0  0  0
    0.0407  -13.1606   10.9125 C   0  0  0  0  0  0  0  0  0  0  0  0
   -1.1071  -15.2221   10.9004 S   0  0  0  0  0  0  0  0  0  0  0  0
   -2.2989  -16.4073    9.4876 C   0  0  0  0  0  0  0  0  0  0  0  0
   -3.2433  -16.0259    8.5872 N   0  0  0  0  0  0  0  0  0  0  0  0
   -4.4342  -17.0238    8.1170 C   0  0  0  0  0  0  0  0  0  0  0  0
   -6.4516  -17.0667    8.3779 C   0  0  0  0  0  0  0  0  0  0  0  0
   -7.5994  -17.8536    8.1629 C   0  0  0  0  0  0  0  0  0  0  0  0
   -7.2795  -18.8453    8.9155 C   0  0  0  0  0  0  0  0  0  0  0  0
   -5.8996  -18.6085    9.0531 C   0  0  0  0  0  0  0  0  0  0  0  0
   -4.0054  -18.0801    8.9513 C   0  0  0  0  0  0  0  0  0  0  0  0
   -2.7113  -17.8798    9.6805 O   0  0  0  0  0  0  0  0  0  0  0  0
    2.4211  -11.0784   11.6658 N   0  0  0  0  0  0  0  0  0  0  0  0
    3.6848  -10.0163   12.9804 C   0  0  0  0  0  0  0  0  0  0  0  0
    4.3263   -8.1908   13.7386 C   0  0  0  0  0  0  0  0  0  0  0  0
    3.7361   -6.8165   14.9780 C   0  0  0  0  0  0  0  0  0  0  0  0
    4.6041   -6.2890   16.2232 C   0  0  0  0  0  0  0  0  0  0  0  0
    6.4088   -6.5969   15.8456 S   0  0  0  0  0  0  0  0  0  0  0  0
    5.8537   -7.7678   13.9653 C   0  0  0  0  0  0  0  0  0  0  0  0
    2.0270   -9.4348   11.0376 C   0  0  0  0  0  0  0  0  0  0  0  0
    1.3734   -7.9481   11.0745 C   0  0  0  0  0  0  0  0  0  0  0  0
    2.8226   -7.7148   11.4368 C   0  0  0  0  0  0  0  0  0  0  0  0
   -0.7467  -12.4840   11.0090 H   0  0  0  0  0  0  0  0  0  0  0  0
    0.4871  -13.8519   11.6427 H   0  0  0  0  0  0  0  0  0  0  0  0
   -6.8222  -16.0408    8.8125 H   0  0  0  0  0  0  0  0  0  0  0  0
   -8.6416  -17.7994    8.0292 H   0  0  0  0  0  0  0  0  0  0  0  0
   -7.8488  -19.6984    9.2766 H   0  0  0  0  0  0  0  0  0  0  0  0
   -6.3839  -19.1379   10.2251 H   0  0  0  0  0  0  0  0  0  0  0  0
    4.6431  -10.5984   13.0824 H   0  0  0  0  0  0  0  0  0  0  0  0
    3.4118  -10.4462   13.9676 H   0  0  0  0  0  0  0  0  0  0  0  0
    3.0578   -5.9806   14.7642 H   0  0  0  0  0  0  0  0  0  0  0  0
    4.5736   -5.4256   16.8673 H   0  0  0  0  0  0  0  0  0  0  0  0
    6.7746   -8.1395   13.6034 H   0  0  0  0  0  0  0  0  0  0  0  0
    1.2947   -9.7764   10.3168 H   0  0  0  0  0  0  0  0  0  0  0  0
    1.0304   -7.4888   10.1365 H   0  0  0  0  0  0  0  0  0  0  0  0
    0.6518   -7.5723   11.7824 H   0  0  0  0  0  0  0  0  0  0  0  0
    2.6806   -6.6498   11.6344 H   0  0  0  0  0  0  0  0  0  0  0  0
    3.7455   -7.6705   10.9058 H   0  0  0  0  0  0  0  0  0  0  0  0
  1  2  2  0
  2  3  1  0
  3  4  1  0
  4  5  1  0
  5  6  2  0
  6  7  1  0
  7  8  2  0
  8  9  1  0
  9 10  2  0
 10 11  1  0
 11 12  2  0
 12 13  1  0
  2 14  1  0
 14 15  1  0
 15 16  1  0
 16 17  1  0
 17 18  2  0
 18 19  1  0
 19 20  1  0
 14 21  1  0
 21 22  1  0
 22 23  1  0
 13  5  1  0
 20 16  2  0
 23 21  1  0
 12  7  1  0
  3 24  1  0
  3 25  1  0
  8 26  1  0
  9 27  1  0
 10 28  1  0
 11 29  1  0
 15 30  1  0
 15 31  1  0
 17 32  1  0
 18 33  1  0
 20 34  1  0
 21 35  1  0
 22 36  1  0
 22 37  1  0
 23 38  1  0
 23 39  1  0
M  END
>  <Energy>  (101) 
1560.2724796376024

>  <compound_id>  (101) 
11157

>  <target_id>  (101) 
1

>  <reference_id>  (101) 
2

>  <inspiration_ids>  (101) 
[2, 66]

>  <energy_score>  (101) 
1471.99494713468

>  <distance_score>  (101) 
8.787090640913727

>  <path>  (101) 
/opt/xchem-fragalysis-2/maxwin/BulkDock/SCRATCH/511014/C11157-P2/C11157-P2.minimised.mol

>  <scratch_subdir>  (101) 
/opt/xchem-fragalysis-2/maxwin/BulkDock/SCRATCH/511014/C11157-P2

>  <fragmenstein_runtime>  (101) 
22.979701042175293

>  <fragmenstein_outcome>  (101) 
too moved

>  <fragmenstein_mode>  (101) 
expansion

>  <fragmenstein_error>  (101) 


$$$$
C11157-P66
     RDKit          3D

 39 42  0  0  0  0  0  0  0  0999 V2000
    3.9209  -10.8914   10.8321 O   0  0  0  0  0  0  0  0  0  0  0  0
    3.0852  -10.0331   11.0072 C   0  0  0  0  0  0  0  0  0  0  0  0
    1.2468  -10.9195   11.1414 C   0  0  0  0  0  0  0  0  0  0  0  0
    0.4600  -13.2238   11.2893 S   0  0  0  0  0  0  0  0  0  0  0  0
   -0.9819  -14.7734   10.4391 C   0  0  0  0  0  0  0  0  0  0  0  0
   -2.2978  -14.7795   10.7110 N   0  0  0  0  0  0  0  0  0  0  0  0
   -3.1253  -15.1421    9.5688 C   0  0  0  0  0  0  0  0  0  0  0  0
   -4.6871  -14.6965    8.9388 C   0  0  0  0  0  0  0  0  0  0  0  0
   -6.1604  -15.4913    8.8533 C   0  0  0  0  0  0  0  0  0  0  0  0
   -6.0669  -17.1987    8.2582 C   0  0  0  0  0  0  0  0  0  0  0  0
   -4.0780  -17.2266    8.2831 C   0  0  0  0  0  0  0  0  0  0  0  0
   -2.7464  -16.3553    9.0480 C   0  0  0  0  0  0  0  0  0  0  0  0
   -1.1143  -16.1873    9.4734 O   0  0  0  0  0  0  0  0  0  0  0  0
    3.5435   -8.1060   10.9787 N   0  0  0  0  0  0  0  0  0  0  0  0
    5.2800   -7.1735   10.5285 C   0  0  0  0  0  0  0  0  0  0  0  0
    5.9509   -5.6629    9.9242 C   0  0  0  0  0  0  0  0  0  0  0  0
    5.6241   -4.2570   10.0246 C   0  0  0  0  0  0  0  0  0  0  0  0
    6.4840   -3.4380    9.3186 C   0  0  0  0  0  0  0  0  0  0  0  0
    7.6877   -4.3165    8.5009 S   0  0  0  0  0  0  0  0  0  0  0  0
    7.1232   -5.7804    9.1592 C   0  0  0  0  0  0  0  0  0  0  0  0
    3.9338   -7.2136   12.0534 C   0  0  0  0  0  0  0  0  0  0  0  0
    2.5131   -6.6387   11.6847 C   0  0  0  0  0  0  0  0  0  0  0  0
    3.3883   -5.5604   12.0660 C   0  0  0  0  0  0  0  0  0  0  0  0
    0.7066  -10.3730   10.4025 H   0  0  0  0  0  0  0  0  0  0  0  0
    0.7268  -10.6883   12.0264 H   0  0  0  0  0  0  0  0  0  0  0  0
   -4.6424  -13.7395    8.4496 H   0  0  0  0  0  0  0  0  0  0  0  0
   -6.9786  -14.8787    8.4602 H   0  0  0  0  0  0  0  0  0  0  0  0
   -6.8767  -17.8703    8.0582 H   0  0  0  0  0  0  0  0  0  0  0  0
   -3.5149  -18.1928    8.2385 H   0  0  0  0  0  0  0  0  0  0  0  0
    5.5689   -7.7926    9.6767 H   0  0  0  0  0  0  0  0  0  0  0  0
    6.0978   -7.0804   11.3131 H   0  0  0  0  0  0  0  0  0  0  0  0
    4.8305   -3.7973   10.5850 H   0  0  0  0  0  0  0  0  0  0  0  0
    6.4498   -2.3591    9.2476 H   0  0  0  0  0  0  0  0  0  0  0  0
    7.6576   -6.6938    8.9291 H   0  0  0  0  0  0  0  0  0  0  0  0
    4.2346   -7.7038   12.9914 H   0  0  0  0  0  0  0  0  0  0  0  0
    1.5111   -6.9843   11.8908 H   0  0  0  0  0  0  0  0  0  0  0  0
    2.0704   -6.9903   10.7192 H   0  0  0  0  0  0  0  0  0  0  0  0
    3.0737   -5.0498   12.9747 H   0  0  0  0  0  0  0  0  0  0  0  0
    3.5098   -4.8419   11.2842 H   0  0  0  0  0  0  0  0  0  0  0  0
  1  2  2  0
  2  3  1  0
  3  4  1  0
  4  5  1  0
  5  6  2  0
  6  7  1  0
  7  8  2  0
  8  9  1  0
  9 10  2  0
 10 11  1  0
 11 12  2  0
 12 13  1  0
  2 14  1  0
 14 15  1  0
 15 16  1  0
 16 17  1  0
 17 18  2  0
 18 19  1  0
 19 20  1  0
 14 21  1  0
 21 22  1  0
 22 23  1  0
 13  5  1  0
 20 16  2  0
 23 21  1  0
 12  7  1  0
  3 24  1  0
  3 25  1  0
  8 26  1  0
  9 27  1  0
 10 28  1  0
 11 29  1  0
 15 30  1  0
 15 31  1  0
 17 32  1  0
 18 33  1  0
 20 34  1  0
 21 35  1  0
 22 36  1  0
 22 37  1  0
 23 38  1  0
 23 39  1  0
M  END
>  <Energy>  (102) 
1233.5314247733306

>  <compound_id>  (102) 
11157

>  <target_id>  (102) 
1

>  <reference_id>  (102) 
66

>  <inspiration_ids>  (102) 
[2, 66]

>  <energy_score>  (102) 
1145.253892270411

>  <distance_score>  (102) 
9.858321641020785

>  <path>  (102) 
/opt/xchem-fragalysis-2/maxwin/BulkDock/SCRATCH/511014/C11157-P66/C11157-P66.minimised.mol

>  <scratch_subdir>  (102) 
/opt/xchem-fragalysis-2/maxwin/BulkDock/SCRATCH/511014/C11157-P66

>  <fragmenstein_runtime>  (102) 
19.188655138015747

>  <fragmenstein_outcome>  (102) 
too moved

>  <fragmenstein_mode>  (102) 
expansion

>  <fragmenstein_error>  (102) 


$$$$
C11158-P2
     RDKit          3D

 45 47  0  0  0  0  0  0  0  0999 V2000
   -6.6862  -19.2898   11.6196 C   0  0  0  0  0  0  0  0  0  0  0  0
   -6.4397  -17.8308   12.0592 C   0  0  0  0  0  0  0  0  0  0  0  0
   -6.2357  -16.5938   11.5359 N   0  0  0  0  0  0  0  0  0  0  0  0
   -5.7311  -15.5927   12.7092 C   0  0  0  0  0  0  0  0  0  0  0  0
   -4.5284  -14.5072   12.7383 C   0  0  0  0  0  0  0  0  0  0  0  0
   -3.1744  -14.8088   12.3211 C   0  0  0  0  0  0  0  0  0  0  0  0
   -1.1556  -14.2538   11.6739 C   0  0  0  0  0  0  0  0  0  0  0  0
   -0.6796  -15.0207   10.8572 O   0  0  0  0  0  0  0  0  0  0  0  0
   -0.2310  -12.5860   12.2041 N   0  0  0  0  0  0  0  0  0  0  0  0
    1.4825  -11.6511   11.5396 C   0  0  0  0  0  0  0  0  0  0  0  0
    2.7455  -12.1934   10.4364 C   0  0  0  0  0  0  0  0  0  0  0  0
    3.1366  -10.5335   12.3657 C   0  0  0  0  0  0  0  0  0  0  0  0
    4.5376  -10.9569   13.6686 C   0  0  0  0  0  0  0  0  0  0  0  0
    4.0684   -9.0740   13.3689 N   0  0  0  0  0  0  0  0  0  0  0  0
    4.6284   -7.3892   13.4472 C   0  0  0  0  0  0  0  0  0  0  0  0
    4.0532   -6.0124   14.4471 C   0  0  0  0  0  0  0  0  0  0  0  0
    3.9272   -5.7426   15.8645 C   0  0  0  0  0  0  0  0  0  0  0  0
    3.4932   -4.4680   16.1660 C   0  0  0  0  0  0  0  0  0  0  0  0
    3.3116   -3.4996   14.7893 S   0  0  0  0  0  0  0  0  0  0  0  0
    3.6993   -4.8094   13.7781 C   0  0  0  0  0  0  0  0  0  0  0  0
   -3.6796  -16.0441   13.8281 C   0  0  0  0  0  0  0  0  0  0  0  0
   -4.6463  -16.6704   14.5936 C   0  0  0  0  0  0  0  0  0  0  0  0
   -5.7018  -16.5818   13.7024 C   0  0  0  0  0  0  0  0  0  0  0  0
   -6.3988  -17.6737   13.3036 O   0  0  0  0  0  0  0  0  0  0  0  0
   -7.5690  -19.7906   11.9792 H   0  0  0  0  0  0  0  0  0  0  0  0
   -5.8385  -19.8128   12.0196 H   0  0  0  0  0  0  0  0  0  0  0  0
   -6.8284  -19.4164   10.5498 H   0  0  0  0  0  0  0  0  0  0  0  0
   -5.2127  -13.6989   12.6908 H   0  0  0  0  0  0  0  0  0  0  0  0
   -0.8186  -12.0618   12.8165 H   0  0  0  0  0  0  0  0  0  0  0  0
    0.9566  -10.7783   11.1399 H   0  0  0  0  0  0  0  0  0  0  0  0
    3.1532  -11.2828    9.9718 H   0  0  0  0  0  0  0  0  0  0  0  0
    3.6244  -12.6195   10.8966 H   0  0  0  0  0  0  0  0  0  0  0  0
    2.6811  -12.8324    9.5774 H   0  0  0  0  0  0  0  0  0  0  0  0
    3.1864  -10.0487   11.3651 H   0  0  0  0  0  0  0  0  0  0  0  0
    4.0954  -10.9963   14.6686 H   0  0  0  0  0  0  0  0  0  0  0  0
    5.1015  -11.8980   13.5116 H   0  0  0  0  0  0  0  0  0  0  0  0
    5.4623  -10.4077   13.7711 H   0  0  0  0  0  0  0  0  0  0  0  0
    3.4554   -8.5797   12.7018 H   0  0  0  0  0  0  0  0  0  0  0  0
    4.4659   -6.8983   12.4761 H   0  0  0  0  0  0  0  0  0  0  0  0
    5.6938   -7.5013   13.6266 H   0  0  0  0  0  0  0  0  0  0  0  0
    4.1239   -6.4037   16.6883 H   0  0  0  0  0  0  0  0  0  0  0  0
    3.3087   -4.0540   17.1480 H   0  0  0  0  0  0  0  0  0  0  0  0
    3.7089   -4.6466   12.7074 H   0  0  0  0  0  0  0  0  0  0  0  0
   -2.9317  -16.1654   14.7729 H   0  0  0  0  0  0  0  0  0  0  0  0
   -4.3484  -17.2535   15.4577 H   0  0  0  0  0  0  0  0  0  0  0  0
  1  2  1  0
  2  3  2  0
  3  4  1  0
  4  5  2  0
  5  6  1  0
  6  7  1  0
  7  8  2  0
  7  9  1  0
  9 10  1  0
 10 11  1  0
 10 12  1  0
 12 13  1  0
 12 14  1  0
 14 15  1  0
 15 16  1  0
 16 17  1  0
 17 18  2  0
 18 19  1  0
 19 20  1  0
  6 21  2  0
 21 22  1  0
 22 23  2  0
 23 24  1  0
 24  2  1  0
 23  4  1  0
 20 16  2  0
  1 25  1  0
  1 26  1  0
  1 27  1  0
  5 28  1  0
  9 29  1  0
 10 30  1  0
 11 31  1  0
 11 32  1  0
 11 33  1  0
 12 34  1  0
 13 35  1  0
 13 36  1  0
 13 37  1  0
 14 38  1  0
 15 39  1  0
 15 40  1  0
 17 41  1  0
 18 42  1  0
 20 43  1  0
 21 44  1  0
 22 45  1  0
M  END
>  <Energy>  (103) 
1336.3907064234074

>  <compound_id>  (103) 
11158

>  <target_id>  (103) 
1

>  <reference_id>  (103) 
2

>  <inspiration_ids>  (103) 
[2, 66]

>  <energy_score>  (103) 
1255.193536334068

>  <distance_score>  (103) 
9.230391288553069

>  <path>  (103) 
/opt/xchem-fragalysis-2/maxwin/BulkDock/SCRATCH/511014/C11158-P2/C11158-P2.minimised.mol

>  <scratch_subdir>  (103) 
/opt/xchem-fragalysis-2/maxwin/BulkDock/SCRATCH/511014/C11158-P2

>  <fragmenstein_runtime>  (103) 
17.834773778915405

>  <fragmenstein_outcome>  (103) 
too moved

>  <fragmenstein_mode>  (103) 
expansion

>  <fragmenstein_error>  (103) 


$$$$
C11158-P66
     RDKit          3D

 45 47  0  0  0  0  0  0  0  0999 V2000
   -1.3638   -8.7792    5.2406 C   0  0  0  0  0  0  0  0  0  0  0  0
   -0.9469   -7.4957    5.8803 C   0  0  0  0  0  0  0  0  0  0  0  0
    0.2488   -6.9397    5.9697 N   0  0  0  0  0  0  0  0  0  0  0  0
    0.0681   -5.8145    6.7770 C   0  0  0  0  0  0  0  0  0  0  0  0
    0.9620   -4.7932    7.2792 C   0  0  0  0  0  0  0  0  0  0  0  0
    0.5573   -3.8344    8.2339 C   0  0  0  0  0  0  0  0  0  0  0  0
    1.4584   -2.6366    8.8024 C   0  0  0  0  0  0  0  0  0  0  0  0
    1.0750   -1.5868    8.3566 O   0  0  0  0  0  0  0  0  0  0  0  0
    2.5160   -2.9316    9.8206 N   0  0  0  0  0  0  0  0  0  0  0  0
    3.3925   -1.9623   10.7113 C   0  0  0  0  0  0  0  0  0  0  0  0
    2.5292   -1.5081   11.8863 C   0  0  0  0  0  0  0  0  0  0  0  0
    4.8800   -2.4622   11.3016 C   0  0  0  0  0  0  0  0  0  0  0  0
    5.6351   -2.8919   10.0237 C   0  0  0  0  0  0  0  0  0  0  0  0
    5.8447   -1.4955   12.0672 N   0  0  0  0  0  0  0  0  0  0  0  0
    6.2472   -1.6936   13.5378 C   0  0  0  0  0  0  0  0  0  0  0  0
    7.7694   -1.2421   14.1149 C   0  0  0  0  0  0  0  0  0  0  0  0
    8.5870   -2.1556   14.8634 C   0  0  0  0  0  0  0  0  0  0  0  0
    9.9634   -1.9085   14.9961 C   0  0  0  0  0  0  0  0  0  0  0  0
   10.4551   -0.3919   14.2569 S   0  0  0  0  0  0  0  0  0  0  0  0
    8.6732   -0.1827   13.8482 C   0  0  0  0  0  0  0  0  0  0  0  0
   -0.8366   -3.8489    8.5270 C   0  0  0  0  0  0  0  0  0  0  0  0
   -1.7710   -4.7993    8.0094 C   0  0  0  0  0  0  0  0  0  0  0  0
   -1.2605   -5.7597    7.1467 C   0  0  0  0  0  0  0  0  0  0  0  0
   -1.9238   -6.7716    6.5117 O   0  0  0  0  0  0  0  0  0  0  0  0
   -0.6937   -9.5804    5.5630 H   0  0  0  0  0  0  0  0  0  0  0  0
   -2.3897   -9.0498    5.5024 H   0  0  0  0  0  0  0  0  0  0  0  0
   -1.2967   -8.6854    4.1529 H   0  0  0  0  0  0  0  0  0  0  0  0
    1.9808   -4.7485    6.9136 H   0  0  0  0  0  0  0  0  0  0  0  0
    2.5184   -3.9220   10.0192 H   0  0  0  0  0  0  0  0  0  0  0  0
    3.5711   -1.0934   10.0653 H   0  0  0  0  0  0  0  0  0  0  0  0
    3.0397   -0.7437   12.4802 H   0  0  0  0  0  0  0  0  0  0  0  0
    2.2917   -2.3530   12.5415 H   0  0  0  0  0  0  0  0  0  0  0  0
    1.5820   -1.0853   11.5349 H   0  0  0  0  0  0  0  0  0  0  0  0
    4.6978   -3.3412   11.9297 H   0  0  0  0  0  0  0  0  0  0  0  0
    5.1045   -3.6967    9.5085 H   0  0  0  0  0  0  0  0  0  0  0  0
    6.6416   -3.2610   10.2235 H   0  0  0  0  0  0  0  0  0  0  0  0
    5.7331   -2.0510    9.3272 H   0  0  0  0  0  0  0  0  0  0  0  0
    6.7407   -1.4829   11.5713 H   0  0  0  0  0  0  0  0  0  0  0  0
    6.1544   -2.7456   13.7964 H   0  0  0  0  0  0  0  0  0  0  0  0
    5.4827   -1.2419   14.1761 H   0  0  0  0  0  0  0  0  0  0  0  0
    8.1769   -3.1116   15.0753 H   0  0  0  0  0  0  0  0  0  0  0  0
   10.7349   -2.5522   15.3933 H   0  0  0  0  0  0  0  0  0  0  0  0
    8.6525    0.4850   13.0242 H   0  0  0  0  0  0  0  0  0  0  0  0
   -1.2237   -3.0589    9.1758 H   0  0  0  0  0  0  0  0  0  0  0  0
   -2.8259   -4.7453    8.2531 H   0  0  0  0  0  0  0  0  0  0  0  0
  1  2  1  0
  2  3  2  0
  3  4  1  0
  4  5  2  0
  5  6  1  0
  6  7  1  0
  7  8  2  0
  7  9  1  0
  9 10  1  0
 10 11  1  0
 10 12  1  0
 12 13  1  0
 12 14  1  0
 14 15  1  0
 15 16  1  0
 16 17  1  0
 17 18  2  0
 18 19  1  0
 19 20  1  0
  6 21  2  0
 21 22  1  0
 22 23  2  0
 23 24  1  0
 24  2  1  0
 23  4  1  0
 20 16  2  0
  1 25  1  0
  1 26  1  0
  1 27  1  0
  5 28  1  0
  9 29  1  0
 10 30  1  0
 11 31  1  0
 11 32  1  0
 11 33  1  0
 12 34  1  0
 13 35  1  0
 13 36  1  0
 13 37  1  0
 14 38  1  0
 15 39  1  0
 15 40  1  0
 17 41  1  0
 18 42  1  0
 20 43  1  0
 21 44  1  0
 22 45  1  0
M  END
>  <Energy>  (104) 
121.30488074799001

>  <compound_id>  (104) 
11158

>  <target_id>  (104) 
1

>  <reference_id>  (104) 
66

>  <inspiration_ids>  (104) 
[2, 66]

>  <energy_score>  (104) 
40.107710658654355

>  <distance_score>  (104) 
14.457416919122206

>  <path>  (104) 
/opt/xchem-fragalysis-2/maxwin/BulkDock/SCRATCH/511014/C11158-P66/C11158-P66.minimised.mol

>  <scratch_subdir>  (104) 
/opt/xchem-fragalysis-2/maxwin/BulkDock/SCRATCH/511014/C11158-P66

>  <fragmenstein_runtime>  (104) 
22.599846601486206

>  <fragmenstein_outcome>  (104) 
too moved

>  <fragmenstein_mode>  (104) 
expansion

>  <fragmenstein_error>  (104) 


$$$$
C11159-P2
     RDKit          3D

 43 45  0  0  0  0  0  0  0  0999 V2000
   -9.1379  -19.3014    6.1498 C   0  0  0  0  0  0  0  0  0  0  0  0
   -8.6151  -18.6674    7.4491 C   0  0  0  0  0  0  0  0  0  0  0  0
   -7.6382  -17.6892    7.6136 N   0  0  0  0  0  0  0  0  0  0  0  0
   -6.1920  -18.0973    8.5262 C   0  0  0  0  0  0  0  0  0  0  0  0
   -4.2866  -17.4891    8.6611 C   0  0  0  0  0  0  0  0  0  0  0  0
   -2.9976  -15.9384    9.3415 C   0  0  0  0  0  0  0  0  0  0  0  0
   -3.6094  -14.9210    9.4287 O   0  0  0  0  0  0  0  0  0  0  0  0
   -1.1879  -15.7975    9.9989 N   0  0  0  0  0  0  0  0  0  0  0  0
   -0.1729  -14.3097   10.9350 C   0  0  0  0  0  0  0  0  0  0  0  0
    0.9944  -12.5503   11.2979 C   0  0  0  0  0  0  0  0  0  0  0  0
   -0.0252  -11.7564   11.8613 C   0  0  0  0  0  0  0  0  0  0  0  0
   -0.2891  -12.4863   13.0301 O   0  0  0  0  0  0  0  0  0  0  0  0
    2.3656  -11.0607   11.5241 N   0  0  0  0  0  0  0  0  0  0  0  0
    3.6376  -10.0378   12.7711 C   0  0  0  0  0  0  0  0  0  0  0  0
    4.1378   -8.0242   13.1916 C   0  0  0  0  0  0  0  0  0  0  0  0
    3.9845   -6.7467   14.4925 C   0  0  0  0  0  0  0  0  0  0  0  0
    3.8517   -5.3560   14.2853 C   0  0  0  0  0  0  0  0  0  0  0  0
    3.9110   -5.0146   12.6124 S   0  0  0  0  0  0  0  0  0  0  0  0
    4.3519   -6.7226   12.2759 C   0  0  0  0  0  0  0  0  0  0  0  0
   -6.0092  -17.8389    9.1679 C   0  0  0  0  0  0  0  0  0  0  0  0
   -6.7531  -18.9638   10.4898 C   0  0  0  0  0  0  0  0  0  0  0  0
   -7.4171  -20.0474   10.2723 C   0  0  0  0  0  0  0  0  0  0  0  0
   -7.3927  -19.4012    9.1029 C   0  0  0  0  0  0  0  0  0  0  0  0
   -8.5348  -19.6246    8.3738 O   0  0  0  0  0  0  0  0  0  0  0  0
  -10.2025  -19.5191    6.1808 H   0  0  0  0  0  0  0  0  0  0  0  0
   -8.9166  -18.6996    5.2675 H   0  0  0  0  0  0  0  0  0  0  0  0
   -8.6636  -20.2768    5.9942 H   0  0  0  0  0  0  0  0  0  0  0  0
   -0.7652  -16.7364    9.9657 H   0  0  0  0  0  0  0  0  0  0  0  0
   -0.5948  -14.4826   11.9189 H   0  0  0  0  0  0  0  0  0  0  0  0
    0.6876  -14.9896   11.0215 H   0  0  0  0  0  0  0  0  0  0  0  0
    1.7705  -12.6546   10.5707 H   0  0  0  0  0  0  0  0  0  0  0  0
    0.1502  -10.7202   12.0251 H   0  0  0  0  0  0  0  0  0  0  0  0
   -0.7643  -11.7529   11.1124 H   0  0  0  0  0  0  0  0  0  0  0  0
    0.4943  -12.6889   13.5698 H   0  0  0  0  0  0  0  0  0  0  0  0
    1.7649  -10.2516   11.3149 H   0  0  0  0  0  0  0  0  0  0  0  0
    4.5438  -10.5934   13.0910 H   0  0  0  0  0  0  0  0  0  0  0  0
    3.3347   -9.4616   11.7172 H   0  0  0  0  0  0  0  0  0  0  0  0
    3.5281   -6.9996   15.4559 H   0  0  0  0  0  0  0  0  0  0  0  0
    3.6145   -4.5921   15.0135 H   0  0  0  0  0  0  0  0  0  0  0  0
    4.6768   -6.6438   11.2539 H   0  0  0  0  0  0  0  0  0  0  0  0
   -6.6309  -16.4923    9.0939 H   0  0  0  0  0  0  0  0  0  0  0  0
   -6.4563  -18.8091   11.5557 H   0  0  0  0  0  0  0  0  0  0  0  0
   -8.0189  -20.7407   10.7919 H   0  0  0  0  0  0  0  0  0  0  0  0
  1  2  1  0
  2  3  2  0
  3  4  1  0
  4  5  2  0
  5  6  1  0
  6  7  2  0
  6  8  1  0
  8  9  1  0
  9 10  1  0
 10 11  1  0
 11 12  1  0
 10 13  1  0
 13 14  1  0
 14 15  1  0
 15 16  1  0
 16 17  2  0
 17 18  1  0
 18 19  1  0
  5 20  1  0
 20 21  2  0
 21 22  1  0
 22 23  2  0
 23 24  1  0
 24  2  1  0
 23  4  1  0
 19 15  2  0
  1 25  1  0
  1 26  1  0
  1 27  1  0
  8 28  1  0
  9 29  1  0
  9 30  1  0
 10 31  1  0
 11 32  1  0
 11 33  1  0
 12 34  1  0
 13 35  1  0
 14 36  1  0
 14 37  1  0
 16 38  1  0
 17 39  1  0
 19 40  1  0
 20 41  1  0
 21 42  1  0
 22 43  1  0
M  END
>  <Energy>  (105) 
1990.579069910845

>  <compound_id>  (105) 
11159

>  <target_id>  (105) 
1

>  <reference_id>  (105) 
2

>  <inspiration_ids>  (105) 
[2, 66]

>  <energy_score>  (105) 
1882.3611008804583

>  <distance_score>  (105) 
7.833561365317822

>  <path>  (105) 
/opt/xchem-fragalysis-2/maxwin/BulkDock/SCRATCH/511014/C11159-P2/C11159-P2.minimised.mol

>  <scratch_subdir>  (105) 
/opt/xchem-fragalysis-2/maxwin/BulkDock/SCRATCH/511014/C11159-P2

>  <fragmenstein_runtime>  (105) 
16.696205377578735

>  <fragmenstein_outcome>  (105) 
too moved

>  <fragmenstein_mode>  (105) 
expansion

>  <fragmenstein_error>  (105) 


$$$$
C11159-P66
     RDKit          3D

 43 45  0  0  0  0  0  0  0  0999 V2000
   -8.5966  -19.1877    7.9135 C   0  0  0  0  0  0  0  0  0  0  0  0
   -7.2940  -17.7921    7.8985 C   0  0  0  0  0  0  0  0  0  0  0  0
   -5.7497  -17.1637    8.1357 N   0  0  0  0  0  0  0  0  0  0  0  0
   -3.9824  -17.8271    8.8159 C   0  0  0  0  0  0  0  0  0  0  0  0
   -2.3670  -16.7846    9.4529 C   0  0  0  0  0  0  0  0  0  0  0  0
   -1.0370  -15.5810   10.8284 C   0  0  0  0  0  0  0  0  0  0  0  0
   -1.6497  -14.6488   11.2102 O   0  0  0  0  0  0  0  0  0  0  0  0
    0.8916  -15.5166   11.6767 N   0  0  0  0  0  0  0  0  0  0  0  0
    1.9527  -14.0943   13.0757 C   0  0  0  0  0  0  0  0  0  0  0  0
    3.9233  -13.1699   14.3523 C   0  0  0  0  0  0  0  0  0  0  0  0
    2.0729  -12.7171   15.1658 C   0  0  0  0  0  0  0  0  0  0  0  0
    1.1694  -12.1241   14.0874 O   0  0  0  0  0  0  0  0  0  0  0  0
    5.0405  -11.3914   13.9348 N   0  0  0  0  0  0  0  0  0  0  0  0
    6.5618   -9.9399   13.9236 C   0  0  0  0  0  0  0  0  0  0  0  0
    7.2570   -7.9296   14.5359 C   0  0  0  0  0  0  0  0  0  0  0  0
    8.3540   -6.3499   14.6090 C   0  0  0  0  0  0  0  0  0  0  0  0
    9.7291   -4.9414   14.5393 C   0  0  0  0  0  0  0  0  0  0  0  0
   10.9984   -6.3988   15.6496 S   0  0  0  0  0  0  0  0  0  0  0  0
    9.1236   -7.7033   15.1017 C   0  0  0  0  0  0  0  0  0  0  0  0
   -3.8740  -17.6071    9.0583 C   0  0  0  0  0  0  0  0  0  0  0  0
   -5.8625  -18.0616    9.6207 C   0  0  0  0  0  0  0  0  0  0  0  0
   -6.6894  -19.0741   10.2762 C   0  0  0  0  0  0  0  0  0  0  0  0
   -5.8586  -18.4067    9.2068 C   0  0  0  0  0  0  0  0  0  0  0  0
   -6.7648  -18.9049    8.3095 O   0  0  0  0  0  0  0  0  0  0  0  0
   -8.3639  -20.0481    8.5641 H   0  0  0  0  0  0  0  0  0  0  0  0
   -9.5965  -18.9214    8.2788 H   0  0  0  0  0  0  0  0  0  0  0  0
   -8.7400  -19.6526    6.9145 H   0  0  0  0  0  0  0  0  0  0  0  0
    1.3798  -16.3660   11.4102 H   0  0  0  0  0  0  0  0  0  0  0  0
    0.8798  -14.1726   13.5067 H   0  0  0  0  0  0  0  0  0  0  0  0
    1.1801  -13.4619   12.3557 H   0  0  0  0  0  0  0  0  0  0  0  0
    4.0720  -12.2648   15.2365 H   0  0  0  0  0  0  0  0  0  0  0  0
    1.7592  -13.1232   14.3671 H   0  0  0  0  0  0  0  0  0  0  0  0
    1.6194  -13.2752   16.0112 H   0  0  0  0  0  0  0  0  0  0  0  0
    0.2907  -12.5833   14.0190 H   0  0  0  0  0  0  0  0  0  0  0  0
    4.2495  -10.7349   13.8345 H   0  0  0  0  0  0  0  0  0  0  0  0
    5.5002   -9.3586   14.0353 H   0  0  0  0  0  0  0  0  0  0  0  0
    7.2302   -9.5517   13.1163 H   0  0  0  0  0  0  0  0  0  0  0  0
    7.6133   -5.9615   15.4583 H   0  0  0  0  0  0  0  0  0  0  0  0
   10.6441   -4.6656   14.0098 H   0  0  0  0  0  0  0  0  0  0  0  0
    9.5999   -8.6625   15.4197 H   0  0  0  0  0  0  0  0  0  0  0  0
   -3.9431  -16.2389    8.3992 H   0  0  0  0  0  0  0  0  0  0  0  0
   -6.3460  -17.1227   10.6352 H   0  0  0  0  0  0  0  0  0  0  0  0
   -6.5864  -19.2565   11.3594 H   0  0  0  0  0  0  0  0  0  0  0  0
  1  2  1  0
  2  3  2  0
  3  4  1  0
  4  5  2  0
  5  6  1  0
  6  7  2  0
  6  8  1  0
  8  9  1  0
  9 10  1  0
 10 11  1  0
 11 12  1  0
 10 13  1  0
 13 14  1  0
 14 15  1  0
 15 16  1  0
 16 17  2  0
 17 18  1  0
 18 19  1  0
  5 20  1  0
 20 21  2  0
 21 22  1  0
 22 23  2  0
 23 24  1  0
 24  2  1  0
 23  4  1  0
 19 15  2  0
  1 25  1  0
  1 26  1  0
  1 27  1  0
  8 28  1  0
  9 29  1  0
  9 30  1  0
 10 31  1  0
 11 32  1  0
 11 33  1  0
 12 34  1  0
 13 35  1  0
 14 36  1  0
 14 37  1  0
 16 38  1  0
 17 39  1  0
 19 40  1  0
 20 41  1  0
 21 42  1  0
 22 43  1  0
M  END
>  <Energy>  (106) 
4749.8829895880153

>  <compound_id>  (106) 
11159

>  <target_id>  (106) 
1

>  <reference_id>  (106) 
66

>  <inspiration_ids>  (106) 
[2, 66]

>  <energy_score>  (106) 
4641.665020557609

>  <distance_score>  (106) 
6.586341965212969

>  <path>  (106) 
/opt/xchem-fragalysis-2/maxwin/BulkDock/SCRATCH/511014/C11159-P66/C11159-P66.minimised.mol

>  <scratch_subdir>  (106) 
/opt/xchem-fragalysis-2/maxwin/BulkDock/SCRATCH/511014/C11159-P66

>  <fragmenstein_runtime>  (106) 
18.739403247833252

>  <fragmenstein_outcome>  (106) 
too moved

>  <fragmenstein_mode>  (106) 
expansion

>  <fragmenstein_error>  (106) 


$$$$
C11160-P2
     RDKit          3D

 45 47  0  0  0  0  0  0  0  0999 V2000
   -9.6871  -22.3327    8.2996 C   0  0  0  0  0  0  0  0  0  0  0  0
   -8.9768  -21.4755    9.2738 C   0  0  0  0  0  0  0  0  0  0  0  0
   -8.7766  -21.6718   10.5714 N   0  0  0  0  0  0  0  0  0  0  0  0
   -8.0468  -20.5738   10.9330 C   0  0  0  0  0  0  0  0  0  0  0  0
   -7.2859  -20.0355   12.0175 C   0  0  0  0  0  0  0  0  0  0  0  0
   -6.5624  -18.4689   12.3142 C   0  0  0  0  0  0  0  0  0  0  0  0
   -6.4416  -17.2739   11.3652 C   0  0  0  0  0  0  0  0  0  0  0  0
   -5.2940  -15.5516   11.7283 C   0  0  0  0  0  0  0  0  0  0  0  0
   -5.6404  -14.6893   12.4856 O   0  0  0  0  0  0  0  0  0  0  0  0
   -3.4430  -15.5254   10.8976 N   0  0  0  0  0  0  0  0  0  0  0  0
   -1.8568  -14.3982   11.1625 C   0  0  0  0  0  0  0  0  0  0  0  0
   -0.0568  -13.3802   11.6431 C   0  0  0  0  0  0  0  0  0  0  0  0
    1.2921  -11.7908   11.3524 C   0  0  0  0  0  0  0  0  0  0  0  0
    2.7555  -12.2089   10.3292 C   0  0  0  0  0  0  0  0  0  0  0  0
    2.8022  -10.6093   11.7770 N   0  0  0  0  0  0  0  0  0  0  0  0
    3.9994   -9.6375   13.1129 C   0  0  0  0  0  0  0  0  0  0  0  0
    4.3357   -7.6439   13.4142 C   0  0  0  0  0  0  0  0  0  0  0  0
    4.5208   -6.4322   12.2795 C   0  0  0  0  0  0  0  0  0  0  0  0
    4.0870   -5.1208   12.5107 C   0  0  0  0  0  0  0  0  0  0  0  0
    3.6490   -4.8167   14.1335 S   0  0  0  0  0  0  0  0  0  0  0  0
    4.0494   -6.5489   14.5253 C   0  0  0  0  0  0  0  0  0  0  0  0
   -6.7428  -18.6758   10.1268 C   0  0  0  0  0  0  0  0  0  0  0  0
   -7.7390  -19.8414    9.8373 C   0  0  0  0  0  0  0  0  0  0  0  0
   -8.4055  -20.3321    8.7626 O   0  0  0  0  0  0  0  0  0  0  0  0
   -9.2534  -23.3369    8.2957 H   0  0  0  0  0  0  0  0  0  0  0  0
   -9.6209  -21.9262    7.2860 H   0  0  0  0  0  0  0  0  0  0  0  0
  -10.7442  -22.4122    8.5694 H   0  0  0  0  0  0  0  0  0  0  0  0
   -6.9823  -20.9354   12.5288 H   0  0  0  0  0  0  0  0  0  0  0  0
   -5.9712  -18.5054   13.1674 H   0  0  0  0  0  0  0  0  0  0  0  0
   -3.3596  -16.2942   10.2070 H   0  0  0  0  0  0  0  0  0  0  0  0
   -1.2976  -15.2239   11.5857 H   0  0  0  0  0  0  0  0  0  0  0  0
   -1.5522  -14.6891   10.1489 H   0  0  0  0  0  0  0  0  0  0  0  0
   -0.1151  -13.3166   12.7397 H   0  0  0  0  0  0  0  0  0  0  0  0
    0.6004  -14.2337   11.4665 H   0  0  0  0  0  0  0  0  0  0  0  0
    0.6412  -10.9679   11.0668 H   0  0  0  0  0  0  0  0  0  0  0  0
    2.7444  -12.9013    9.5007 H   0  0  0  0  0  0  0  0  0  0  0  0
    3.6028  -12.6109   10.8666 H   0  0  0  0  0  0  0  0  0  0  0  0
    3.1486  -11.3071    9.8173 H   0  0  0  0  0  0  0  0  0  0  0  0
    2.3184   -9.7548   11.4720 H   0  0  0  0  0  0  0  0  0  0  0  0
    3.6708  -10.0902   14.0362 H   0  0  0  0  0  0  0  0  0  0  0  0
    3.7317   -8.8852   12.3196 H   0  0  0  0  0  0  0  0  0  0  0  0
    4.9056   -6.5598   11.2773 H   0  0  0  0  0  0  0  0  0  0  0  0
    4.0904   -4.3047   11.8008 H   0  0  0  0  0  0  0  0  0  0  0  0
    3.6423   -6.6842   15.5241 H   0  0  0  0  0  0  0  0  0  0  0  0
   -6.1855  -19.5118   10.6518 H   0  0  0  0  0  0  0  0  0  0  0  0
  1  2  1  0
  2  3  2  0
  3  4  1  0
  4  5  2  0
  5  6  1  0
  6  7  2  0
  7  8  1  0
  8  9  2  0
  8 10  1  0
 10 11  1  0
 11 12  1  0
 12 13  1  0
 13 14  1  0
 13 15  1  0
 15 16  1  0
 16 17  1  0
 17 18  1  0
 18 19  2  0
 19 20  1  0
 20 21  1  0
  7 22  1  0
 22 23  2  0
 23 24  1  0
 24  2  1  0
 23  4  1  0
 21 17  2  0
  1 25  1  0
  1 26  1  0
  1 27  1  0
  5 28  1  0
  6 29  1  0
 10 30  1  0
 11 31  1  0
 11 32  1  0
 12 33  1  0
 12 34  1  0
 13 35  1  0
 14 36  1  0
 14 37  1  0
 14 38  1  0
 15 39  1  0
 16 40  1  0
 16 41  1  0
 18 42  1  0
 19 43  1  0
 21 44  1  0
 22 45  1  0
M  END
>  <Energy>  (107) 
1410.0311231448459

>  <compound_id>  (107) 
11160

>  <target_id>  (107) 
1

>  <reference_id>  (107) 
2

>  <inspiration_ids>  (107) 
[2, 66]

>  <energy_score>  (107) 
1344.6508465057839

>  <distance_score>  (107) 
7.584205681955436

>  <path>  (107) 
/opt/xchem-fragalysis-2/maxwin/BulkDock/SCRATCH/511014/C11160-P2/C11160-P2.minimised.mol

>  <scratch_subdir>  (107) 
/opt/xchem-fragalysis-2/maxwin/BulkDock/SCRATCH/511014/C11160-P2

>  <fragmenstein_runtime>  (107) 
24.260078191757202

>  <fragmenstein_outcome>  (107) 
too moved

>  <fragmenstein_mode>  (107) 
expansion

>  <fragmenstein_error>  (107) 


$$$$
C11160-P66
     RDKit          3D

 45 47  0  0  0  0  0  0  0  0999 V2000
   -5.7633  -14.9067    3.2438 C   0  0  0  0  0  0  0  0  0  0  0  0
   -4.8473  -13.7791    3.4939 C   0  0  0  0  0  0  0  0  0  0  0  0
   -3.7225  -13.5155    2.8667 N   0  0  0  0  0  0  0  0  0  0  0  0
   -3.2756  -12.3725    3.4706 C   0  0  0  0  0  0  0  0  0  0  0  0
   -2.1049  -11.6289    3.2512 C   0  0  0  0  0  0  0  0  0  0  0  0
   -1.8223  -10.5115    4.0636 C   0  0  0  0  0  0  0  0  0  0  0  0
   -2.7138  -10.1038    5.0511 C   0  0  0  0  0  0  0  0  0  0  0  0
   -2.4348   -8.8661    5.8929 C   0  0  0  0  0  0  0  0  0  0  0  0
   -3.1076   -7.8817    5.6547 O   0  0  0  0  0  0  0  0  0  0  0  0
   -1.3844   -9.1216    7.0022 N   0  0  0  0  0  0  0  0  0  0  0  0
   -0.8403   -8.0507    8.4807 C   0  0  0  0  0  0  0  0  0  0  0  0
   -0.1468   -6.4240    8.8425 C   0  0  0  0  0  0  0  0  0  0  0  0
   -0.5841   -5.0418    9.5168 C   0  0  0  0  0  0  0  0  0  0  0  0
   -2.0736   -4.7136    9.5407 C   0  0  0  0  0  0  0  0  0  0  0  0
    0.0730   -4.6400   10.8327 N   0  0  0  0  0  0  0  0  0  0  0  0
    1.5627   -4.5476   10.7517 C   0  0  0  0  0  0  0  0  0  0  0  0
    2.2925   -3.8288   11.8779 C   0  0  0  0  0  0  0  0  0  0  0  0
    2.0065   -3.9018   13.2825 C   0  0  0  0  0  0  0  0  0  0  0  0
    2.9342   -3.2468   14.0679 C   0  0  0  0  0  0  0  0  0  0  0  0
    4.1482   -2.4956   13.1364 S   0  0  0  0  0  0  0  0  0  0  0  0
    3.4581   -3.0912   11.6867 C   0  0  0  0  0  0  0  0  0  0  0  0
   -3.9115  -10.8530    5.2881 C   0  0  0  0  0  0  0  0  0  0  0  0
   -4.1352  -11.9833    4.4841 C   0  0  0  0  0  0  0  0  0  0  0  0
   -5.1618  -12.9007    4.5101 O   0  0  0  0  0  0  0  0  0  0  0  0
   -5.2208  -15.8547    3.2154 H   0  0  0  0  0  0  0  0  0  0  0  0
   -6.2878  -14.7721    2.2942 H   0  0  0  0  0  0  0  0  0  0  0  0
   -6.4884  -14.9318    4.0434 H   0  0  0  0  0  0  0  0  0  0  0  0
   -1.4168  -11.9248    2.4641 H   0  0  0  0  0  0  0  0  0  0  0  0
   -0.9152   -9.9350    3.8886 H   0  0  0  0  0  0  0  0  0  0  0  0
   -0.9614  -10.0096    6.8532 H   0  0  0  0  0  0  0  0  0  0  0  0
   -1.4883   -7.2754    7.9590 H   0  0  0  0  0  0  0  0  0  0  0  0
    0.1716   -8.4180    8.4181 H   0  0  0  0  0  0  0  0  0  0  0  0
    0.2567   -6.0701    7.8862 H   0  0  0  0  0  0  0  0  0  0  0  0
    0.5865   -6.7486    9.5838 H   0  0  0  0  0  0  0  0  0  0  0  0
   -0.1862   -4.2903    8.8161 H   0  0  0  0  0  0  0  0  0  0  0  0
   -2.2234   -3.6363    9.6824 H   0  0  0  0  0  0  0  0  0  0  0  0
   -2.5492   -4.9781    8.5905 H   0  0  0  0  0  0  0  0  0  0  0  0
   -2.6028   -5.2084   10.3546 H   0  0  0  0  0  0  0  0  0  0  0  0
   -0.2620   -3.7053   11.0763 H   0  0  0  0  0  0  0  0  0  0  0  0
    1.8440   -4.0801    9.8026 H   0  0  0  0  0  0  0  0  0  0  0  0
    1.9122   -5.5754   10.7894 H   0  0  0  0  0  0  0  0  0  0  0  0
    1.1618   -4.4386   13.6969 H   0  0  0  0  0  0  0  0  0  0  0  0
    2.9484   -3.1660   15.1459 H   0  0  0  0  0  0  0  0  0  0  0  0
    3.9547   -2.8793   10.7492 H   0  0  0  0  0  0  0  0  0  0  0  0
   -4.6126  -10.5644    6.0640 H   0  0  0  0  0  0  0  0  0  0  0  0
  1  2  1  0
  2  3  2  0
  3  4  1  0
  4  5  2  0
  5  6  1  0
  6  7  2  0
  7  8  1  0
  8  9  2  0
  8 10  1  0
 10 11  1  0
 11 12  1  0
 12 13  1  0
 13 14  1  0
 13 15  1  0
 15 16  1  0
 16 17  1  0
 17 18  1  0
 18 19  2  0
 19 20  1  0
 20 21  1  0
  7 22  1  0
 22 23  2  0
 23 24  1  0
 24  2  1  0
 23  4  1  0
 21 17  2  0
  1 25  1  0
  1 26  1  0
  1 27  1  0
  5 28  1  0
  6 29  1  0
 10 30  1  0
 11 31  1  0
 11 32  1  0
 12 33  1  0
 12 34  1  0
 13 35  1  0
 14 36  1  0
 14 37  1  0
 14 38  1  0
 15 39  1  0
 16 40  1  0
 16 41  1  0
 18 42  1  0
 19 43  1  0
 21 44  1  0
 22 45  1  0
M  END
>  <Energy>  (108) 
191.29476118065995

>  <compound_id>  (108) 
11160

>  <target_id>  (108) 
1

>  <reference_id>  (108) 
66

>  <inspiration_ids>  (108) 
[2, 66]

>  <energy_score>  (108) 
125.91448454159485

>  <distance_score>  (108) 
11.64319540757563

>  <path>  (108) 
/opt/xchem-fragalysis-2/maxwin/BulkDock/SCRATCH/511014/C11160-P66/C11160-P66.minimised.mol

>  <scratch_subdir>  (108) 
/opt/xchem-fragalysis-2/maxwin/BulkDock/SCRATCH/511014/C11160-P66

>  <fragmenstein_runtime>  (108) 
20.726582288742065

>  <fragmenstein_outcome>  (108) 
too moved

>  <fragmenstein_mode>  (108) 
expansion

>  <fragmenstein_error>  (108) 


$$$$
C11161-P2
     RDKit          3D

 30 32  0  0  0  0  0  0  0  0999 V2000
   -1.3261  -18.9203   14.3991 N   0  0  0  0  0  0  0  0  0  0  0  0
   -1.7762  -17.5984   14.5808 C   0  0  0  0  0  0  0  0  0  0  0  0
   -2.9441  -17.3457   15.3244 C   0  0  0  0  0  0  0  0  0  0  0  0
   -3.4277  -16.0677   15.5991 C   0  0  0  0  0  0  0  0  0  0  0  0
   -2.5569  -15.0321   15.3070 C   0  0  0  0  0  0  0  0  0  0  0  0
   -2.5981  -13.7251   15.6895 N   0  0  0  0  0  0  0  0  0  0  0  0
   -1.3708  -13.2980   15.4459 C   0  0  0  0  0  0  0  0  0  0  0  0
   -0.7918  -11.8035   16.1372 S   0  0  0  0  0  0  0  0  0  0  0  0
    1.0283  -12.0186   16.5697 C   0  0  0  0  0  0  0  0  0  0  0  0
    1.7004  -10.8045   17.3538 C   0  0  0  0  0  0  0  0  0  0  0  0
    3.0457  -10.2382   16.8776 C   0  0  0  0  0  0  0  0  0  0  0  0
    3.3645   -8.8251   16.8562 C   0  0  0  0  0  0  0  0  0  0  0  0
    4.6214   -8.5511   16.3621 C   0  0  0  0  0  0  0  0  0  0  0  0
    5.4642   -9.9822   15.9747 S   0  0  0  0  0  0  0  0  0  0  0  0
    4.1532  -10.9605   16.4729 C   0  0  0  0  0  0  0  0  0  0  0  0
   -0.6250  -14.1526   14.6834 O   0  0  0  0  0  0  0  0  0  0  0  0
   -1.3647  -15.2993   14.6620 C   0  0  0  0  0  0  0  0  0  0  0  0
   -0.9515  -16.5434   14.2160 C   0  0  0  0  0  0  0  0  0  0  0  0
   -0.6601  -19.0017   13.6353 H   0  0  0  0  0  0  0  0  0  0  0  0
   -2.1436  -19.5066   14.1637 H   0  0  0  0  0  0  0  0  0  0  0  0
   -3.5035  -18.1626   15.7477 H   0  0  0  0  0  0  0  0  0  0  0  0
   -4.3344  -15.9063   16.1675 H   0  0  0  0  0  0  0  0  0  0  0  0
    1.0965  -12.9128   17.1990 H   0  0  0  0  0  0  0  0  0  0  0  0
    1.5661  -12.2288   15.6492 H   0  0  0  0  0  0  0  0  0  0  0  0
    1.8568  -11.1399   18.3886 H   0  0  0  0  0  0  0  0  0  0  0  0
    0.9830   -9.9768   17.4217 H   0  0  0  0  0  0  0  0  0  0  0  0
    2.6755   -8.0469   17.1627 H   0  0  0  0  0  0  0  0  0  0  0  0
    5.0781   -7.5843   16.2052 H   0  0  0  0  0  0  0  0  0  0  0  0
    4.2562  -12.0347   16.4149 H   0  0  0  0  0  0  0  0  0  0  0  0
    0.0120  -16.6881   13.7449 H   0  0  0  0  0  0  0  0  0  0  0  0
  1  2  1  0
  2  3  2  0
  3  4  1  0
  4  5  2  0
  5  6  1  0
  6  7  2  0
  7  8  1  0
  8  9  1  0
  9 10  1  0
 10 11  1  0
 11 12  1  0
 12 13  2  0
 13 14  1  0
 14 15  1  0
  7 16  1  0
 16 17  1  0
 17 18  2  0
 18  2  1  0
 17  5  1  0
 15 11  2  0
  1 19  1  0
  1 20  1  0
  3 21  1  0
  4 22  1  0
  9 23  1  0
  9 24  1  0
 10 25  1  0
 10 26  1  0
 12 27  1  0
 13 28  1  0
 15 29  1  0
 18 30  1  0
M  END
>  <Energy>  (109) 
21.129167851856369

>  <compound_id>  (109) 
11161

>  <target_id>  (109) 
1

>  <reference_id>  (109) 
2

>  <inspiration_ids>  (109) 
[2, 66]

>  <energy_score>  (109) 
-18.31694423203679

>  <distance_score>  (109) 
12.725004321414236

>  <path>  (109) 
/opt/xchem-fragalysis-2/maxwin/BulkDock/SCRATCH/511014/C11161-P2/C11161-P2.minimised.mol

>  <scratch_subdir>  (109) 
/opt/xchem-fragalysis-2/maxwin/BulkDock/SCRATCH/511014/C11161-P2

>  <fragmenstein_runtime>  (109) 
10.129234313964844

>  <fragmenstein_outcome>  (109) 
too moved

>  <fragmenstein_mode>  (109) 
expansion

>  <fragmenstein_error>  (109) 


$$$$
C11161-P66
     RDKit          3D

 30 32  0  0  0  0  0  0  0  0999 V2000
  -10.8281  -25.5363   10.0236 N   0  0  0  0  0  0  0  0  0  0  0  0
  -10.2071  -24.2794    9.9588 C   0  0  0  0  0  0  0  0  0  0  0  0
  -10.2572  -23.5463    8.7590 C   0  0  0  0  0  0  0  0  0  0  0  0
   -9.7605  -22.2379    8.6689 C   0  0  0  0  0  0  0  0  0  0  0  0
   -9.2423  -21.6653    9.8369 C   0  0  0  0  0  0  0  0  0  0  0  0
   -8.7466  -20.4034   10.0859 N   0  0  0  0  0  0  0  0  0  0  0  0
   -8.3691  -20.3432   11.3756 C   0  0  0  0  0  0  0  0  0  0  0  0
   -6.5992  -19.3096   11.9200 S   0  0  0  0  0  0  0  0  0  0  0  0
   -6.4506  -17.6094   13.2757 C   0  0  0  0  0  0  0  0  0  0  0  0
   -5.5812  -16.0022   13.7913 C   0  0  0  0  0  0  0  0  0  0  0  0
   -4.2426  -15.5120   14.5779 C   0  0  0  0  0  0  0  0  0  0  0  0
   -4.1132  -14.1016   14.9835 C   0  0  0  0  0  0  0  0  0  0  0  0
   -2.8791  -13.7440   15.4927 C   0  0  0  0  0  0  0  0  0  0  0  0
   -1.8073  -15.0643   15.4965 S   0  0  0  0  0  0  0  0  0  0  0  0
   -3.0209  -16.1141   14.8517 C   0  0  0  0  0  0  0  0  0  0  0  0
   -8.6748  -21.6173   11.9723 O   0  0  0  0  0  0  0  0  0  0  0  0
   -9.2539  -22.3859   11.0101 C   0  0  0  0  0  0  0  0  0  0  0  0
   -9.7387  -23.6806   11.1370 C   0  0  0  0  0  0  0  0  0  0  0  0
  -10.8473  -26.0364    9.1397 H   0  0  0  0  0  0  0  0  0  0  0  0
  -10.5005  -26.1203   10.7875 H   0  0  0  0  0  0  0  0  0  0  0  0
  -10.6900  -23.9974    7.8686 H   0  0  0  0  0  0  0  0  0  0  0  0
   -9.7808  -21.6734    7.7448 H   0  0  0  0  0  0  0  0  0  0  0  0
   -7.4953  -17.4410   13.5806 H   0  0  0  0  0  0  0  0  0  0  0  0
   -5.8833  -18.3115   13.8153 H   0  0  0  0  0  0  0  0  0  0  0  0
   -6.3722  -15.5369   14.4006 H   0  0  0  0  0  0  0  0  0  0  0  0
   -5.4568  -15.4294   12.8697 H   0  0  0  0  0  0  0  0  0  0  0  0
   -4.9190  -13.3854   14.8697 H   0  0  0  0  0  0  0  0  0  0  0  0
   -2.5592  -12.7722   15.8413 H   0  0  0  0  0  0  0  0  0  0  0  0
   -2.7215  -17.1324   14.6602 H   0  0  0  0  0  0  0  0  0  0  0  0
   -9.7411  -24.1836   12.0945 H   0  0  0  0  0  0  0  0  0  0  0  0
  1  2  1  0
  2  3  2  0
  3  4  1  0
  4  5  2  0
  5  6  1  0
  6  7  2  0
  7  8  1  0
  8  9  1  0
  9 10  1  0
 10 11  1  0
 11 12  1  0
 12 13  2  0
 13 14  1  0
 14 15  1  0
  7 16  1  0
 16 17  1  0
 17 18  2  0
 18  2  1  0
 17  5  1  0
 15 11  2  0
  1 19  1  0
  1 20  1  0
  3 21  1  0
  4 22  1  0
  9 23  1  0
  9 24  1  0
 10 25  1  0
 10 26  1  0
 12 27  1  0
 13 28  1  0
 15 29  1  0
 18 30  1  0
M  END
>  <Energy>  (110) 
188.10283292470862

>  <compound_id>  (110) 
11161

>  <target_id>  (110) 
1

>  <reference_id>  (110) 
66

>  <inspiration_ids>  (110) 
[2, 66]

>  <energy_score>  (110) 
148.65672084082084

>  <distance_score>  (110) 
14.197320650948113

>  <path>  (110) 
/opt/xchem-fragalysis-2/maxwin/BulkDock/SCRATCH/511014/C11161-P66/C11161-P66.minimised.mol

>  <scratch_subdir>  (110) 
/opt/xchem-fragalysis-2/maxwin/BulkDock/SCRATCH/511014/C11161-P66

>  <fragmenstein_runtime>  (110) 
7.472571611404419

>  <fragmenstein_outcome>  (110) 
too moved

>  <fragmenstein_mode>  (110) 
expansion

>  <fragmenstein_error>  (110) 


$$$$
C11162-P2
     RDKit          3D

 31 33  0  0  0  0  0  0  0  0999 V2000
   -1.6445  -20.0166   10.5568 N   0  0  0  0  0  0  0  0  0  0  0  0
   -1.2724  -18.8531   11.2544 C   0  0  0  0  0  0  0  0  0  0  0  0
   -0.9729  -18.9252   12.6249 C   0  0  0  0  0  0  0  0  0  0  0  0
   -0.6396  -17.7751   13.3761 C   0  0  0  0  0  0  0  0  0  0  0  0
   -0.5385  -16.5424   12.7134 C   0  0  0  0  0  0  0  0  0  0  0  0
   -0.2165  -15.2579   13.1564 N   0  0  0  0  0  0  0  0  0  0  0  0
   -0.1673  -14.5328   12.0583 C   0  0  0  0  0  0  0  0  0  0  0  0
    0.2489  -13.2664   11.7387 N   0  0  0  0  0  0  0  0  0  0  0  0
    0.2573  -11.9777   12.5251 C   0  0  0  0  0  0  0  0  0  0  0  0
    1.9120  -11.1055   12.8822 C   0  0  0  0  0  0  0  0  0  0  0  0
    3.0486  -10.6411   14.4901 C   0  0  0  0  0  0  0  0  0  0  0  0
    2.8208  -11.1585   15.8823 C   0  0  0  0  0  0  0  0  0  0  0  0
    3.7465  -10.7410   16.8157 C   0  0  0  0  0  0  0  0  0  0  0  0
    4.9148   -9.7113   16.1472 S   0  0  0  0  0  0  0  0  0  0  0  0
    4.1972   -9.8390   14.6022 C   0  0  0  0  0  0  0  0  0  0  0  0
   -0.5702  -15.2488   10.9400 O   0  0  0  0  0  0  0  0  0  0  0  0
   -0.7532  -16.5331   11.3497 C   0  0  0  0  0  0  0  0  0  0  0  0
   -1.0851  -17.6447   10.5667 C   0  0  0  0  0  0  0  0  0  0  0  0
   -2.1662  -20.6495   11.1732 H   0  0  0  0  0  0  0  0  0  0  0  0
   -2.2761  -19.8041    9.7849 H   0  0  0  0  0  0  0  0  0  0  0  0
   -1.0722  -19.8767   13.1446 H   0  0  0  0  0  0  0  0  0  0  0  0
   -0.4609  -17.8437   14.4426 H   0  0  0  0  0  0  0  0  0  0  0  0
   -0.2447  -13.0418   10.8914 H   0  0  0  0  0  0  0  0  0  0  0  0
   -0.2435  -11.2234   11.9309 H   0  0  0  0  0  0  0  0  0  0  0  0
   -0.3364  -12.1268   13.4430 H   0  0  0  0  0  0  0  0  0  0  0  0
    1.5257  -12.0869   13.7389 H   0  0  0  0  0  0  0  0  0  0  0  0
    2.4075  -11.0253   11.8753 H   0  0  0  0  0  0  0  0  0  0  0  0
    2.0082  -11.8328   16.1313 H   0  0  0  0  0  0  0  0  0  0  0  0
    3.7836  -11.0038   17.8634 H   0  0  0  0  0  0  0  0  0  0  0  0
    4.6017   -9.1784   13.8772 H   0  0  0  0  0  0  0  0  0  0  0  0
   -1.2443  -17.5572    9.5006 H   0  0  0  0  0  0  0  0  0  0  0  0
  1  2  1  0
  2  3  2  0
  3  4  1  0
  4  5  2  0
  5  6  1  0
  6  7  2  0
  7  8  1  0
  8  9  1  0
  9 10  1  0
 10 11  1  0
 11 12  1  0
 12 13  2  0
 13 14  1  0
 14 15  1  0
  7 16  1  0
 16 17  1  0
 17 18  2  0
 18  2  1  0
 17  5  1  0
 15 11  2  0
  1 19  1  0
  1 20  1  0
  3 21  1  0
  4 22  1  0
  8 23  1  0
  9 24  1  0
  9 25  1  0
 10 26  1  0
 10 27  1  0
 12 28  1  0
 13 29  1  0
 15 30  1  0
 18 31  1  0
M  END
>  <Energy>  (111) 
177.80062107999191

>  <compound_id>  (111) 
11162

>  <target_id>  (111) 
1

>  <reference_id>  (111) 
2

>  <inspiration_ids>  (111) 
[2, 66]

>  <energy_score>  (111) 
166.46652226438368

>  <distance_score>  (111) 
11.988460909494213

>  <path>  (111) 
/opt/xchem-fragalysis-2/maxwin/BulkDock/SCRATCH/511014/C11162-P2/C11162-P2.minimised.mol

>  <scratch_subdir>  (111) 
/opt/xchem-fragalysis-2/maxwin/BulkDock/SCRATCH/511014/C11162-P2

>  <fragmenstein_runtime>  (111) 
9.276905298233032

>  <fragmenstein_outcome>  (111) 
too moved

>  <fragmenstein_mode>  (111) 
expansion

>  <fragmenstein_error>  (111) 


$$$$
C11162-P66
     RDKit          3D

 31 33  0  0  0  0  0  0  0  0999 V2000
   -8.7541  -13.0541    7.5033 N   0  0  0  0  0  0  0  0  0  0  0  0
   -7.5634  -12.5520    6.9408 C   0  0  0  0  0  0  0  0  0  0  0  0
   -7.5283  -12.1692    5.5913 C   0  0  0  0  0  0  0  0  0  0  0  0
   -6.3971  -11.5376    5.0249 C   0  0  0  0  0  0  0  0  0  0  0  0
   -5.2946  -11.2878    5.8536 C   0  0  0  0  0  0  0  0  0  0  0  0
   -4.1300  -10.5068    5.6867 N   0  0  0  0  0  0  0  0  0  0  0  0
   -3.5266  -10.5291    6.8777 C   0  0  0  0  0  0  0  0  0  0  0  0
   -1.9458   -9.8400    7.5275 N   0  0  0  0  0  0  0  0  0  0  0  0
   -0.6958   -8.3939    8.0316 C   0  0  0  0  0  0  0  0  0  0  0  0
   -0.4980   -6.6103    8.4396 C   0  0  0  0  0  0  0  0  0  0  0  0
    0.4726   -5.5551    9.2629 C   0  0  0  0  0  0  0  0  0  0  0  0
    1.0361   -5.7399   10.5984 C   0  0  0  0  0  0  0  0  0  0  0  0
    1.7030   -4.6393   11.0984 C   0  0  0  0  0  0  0  0  0  0  0  0
    1.6583   -3.3344   10.0068 S   0  0  0  0  0  0  0  0  0  0  0  0
    0.7331   -4.2434    8.8748 C   0  0  0  0  0  0  0  0  0  0  0  0
   -4.1657  -11.5448    7.7119 O   0  0  0  0  0  0  0  0  0  0  0  0
   -5.3270  -11.8592    7.1061 C   0  0  0  0  0  0  0  0  0  0  0  0
   -6.3828  -12.5653    7.6788 C   0  0  0  0  0  0  0  0  0  0  0  0
   -9.5652  -12.6231    7.0597 H   0  0  0  0  0  0  0  0  0  0  0  0
   -8.7818  -12.8666    8.5085 H   0  0  0  0  0  0  0  0  0  0  0  0
   -8.4134  -12.2847    4.9688 H   0  0  0  0  0  0  0  0  0  0  0  0
   -6.4157  -11.1704    4.0046 H   0  0  0  0  0  0  0  0  0  0  0  0
   -2.1707  -10.1601    8.5163 H   0  0  0  0  0  0  0  0  0  0  0  0
    0.2559   -8.6899    7.5444 H   0  0  0  0  0  0  0  0  0  0  0  0
   -0.4471   -8.6762    9.0441 H   0  0  0  0  0  0  0  0  0  0  0  0
   -1.1848   -5.9699    7.8905 H   0  0  0  0  0  0  0  0  0  0  0  0
   -0.7389   -6.7621    9.4818 H   0  0  0  0  0  0  0  0  0  0  0  0
    0.9725   -6.6620   11.1548 H   0  0  0  0  0  0  0  0  0  0  0  0
    2.2160   -4.5467   12.0456 H   0  0  0  0  0  0  0  0  0  0  0  0
    0.4075   -3.7510    7.9682 H   0  0  0  0  0  0  0  0  0  0  0  0
   -6.3152  -12.9505    8.6871 H   0  0  0  0  0  0  0  0  0  0  0  0
  1  2  1  0
  2  3  2  0
  3  4  1  0
  4  5  2  0
  5  6  1  0
  6  7  2  0
  7  8  1  0
  8  9  1  0
  9 10  1  0
 10 11  1  0
 11 12  1  0
 12 13  2  0
 13 14  1  0
 14 15  1  0
  7 16  1  0
 16 17  1  0
 17 18  2  0
 18  2  1  0
 17  5  1  0
 15 11  2  0
  1 19  1  0
  1 20  1  0
  3 21  1  0
  4 22  1  0
  8 23  1  0
  9 24  1  0
  9 25  1  0
 10 26  1  0
 10 27  1  0
 12 28  1  0
 13 29  1  0
 15 30  1  0
 18 31  1  0
M  END
>  <Energy>  (112) 
307.37719410772826

>  <compound_id>  (112) 
11162

>  <target_id>  (112) 
1

>  <reference_id>  (112) 
66

>  <inspiration_ids>  (112) 
[2, 66]

>  <energy_score>  (112) 
296.0430952921252

>  <distance_score>  (112) 
12.907720598046344

>  <path>  (112) 
/opt/xchem-fragalysis-2/maxwin/BulkDock/SCRATCH/511014/C11162-P66/C11162-P66.minimised.mol

>  <scratch_subdir>  (112) 
/opt/xchem-fragalysis-2/maxwin/BulkDock/SCRATCH/511014/C11162-P66

>  <fragmenstein_runtime>  (112) 
9.131483554840088

>  <fragmenstein_outcome>  (112) 
too moved

>  <fragmenstein_mode>  (112) 
expansion

>  <fragmenstein_error>  (112) 


$$$$
C11167-P2
     RDKit          3D

 42 44  0  0  0  0  0  0  0  0999 V2000
   -9.0666  -20.3233    7.9447 C   0  0  0  0  0  0  0  0  0  0  0  0
   -8.0752  -19.9048    8.9734 C   0  0  0  0  0  0  0  0  0  0  0  0
   -7.1935  -18.8679    9.0281 N   0  0  0  0  0  0  0  0  0  0  0  0
   -6.7531  -18.6629   10.4127 C   0  0  0  0  0  0  0  0  0  0  0  0
   -6.4397  -17.0236   11.3436 C   0  0  0  0  0  0  0  0  0  0  0  0
   -5.2200  -15.4099   11.7470 C   0  0  0  0  0  0  0  0  0  0  0  0
   -5.5723  -14.5756   12.5552 O   0  0  0  0  0  0  0  0  0  0  0  0
   -3.4116  -15.4939   10.8819 N   0  0  0  0  0  0  0  0  0  0  0  0
   -1.7372  -14.5015   11.1371 C   0  0  0  0  0  0  0  0  0  0  0  0
   -0.5272  -15.6553   10.8409 C   0  0  0  0  0  0  0  0  0  0  0  0
   -0.1952  -13.2678   11.7795 C   0  0  0  0  0  0  0  0  0  0  0  0
    0.7269  -11.5936   11.7796 N   0  0  0  0  0  0  0  0  0  0  0  0
    2.5361  -10.8790   11.7238 C   0  0  0  0  0  0  0  0  0  0  0  0
    3.8559  -10.0604   13.0638 C   0  0  0  0  0  0  0  0  0  0  0  0
    4.0334   -8.2358   12.9764 C   0  0  0  0  0  0  0  0  0  0  0  0
    4.7840   -7.2497   13.4516 C   0  0  0  0  0  0  0  0  0  0  0  0
    6.1196   -8.0851   13.8782 S   0  0  0  0  0  0  0  0  0  0  0  0
    5.0248  -10.1070   13.8753 C   0  0  0  0  0  0  0  0  0  0  0  0
   -6.4450  -17.7133   12.5765 C   0  0  0  0  0  0  0  0  0  0  0  0
   -6.2484  -19.1094   12.5856 C   0  0  0  0  0  0  0  0  0  0  0  0
   -6.9879  -20.2012   12.0781 C   0  0  0  0  0  0  0  0  0  0  0  0
   -7.3403  -19.8491   10.8998 C   0  0  0  0  0  0  0  0  0  0  0  0
   -8.1091  -20.6020   10.1088 O   0  0  0  0  0  0  0  0  0  0  0  0
   -8.8391  -21.3164    7.5511 H   0  0  0  0  0  0  0  0  0  0  0  0
   -9.1088  -19.6143    7.1145 H   0  0  0  0  0  0  0  0  0  0  0  0
  -10.0629  -20.3674    8.3952 H   0  0  0  0  0  0  0  0  0  0  0  0
   -3.3864  -16.2437   10.1644 H   0  0  0  0  0  0  0  0  0  0  0  0
   -1.7299  -14.4900   10.0412 H   0  0  0  0  0  0  0  0  0  0  0  0
   -0.1602  -16.1885   11.7030 H   0  0  0  0  0  0  0  0  0  0  0  0
    0.3955  -15.2695   10.4254 H   0  0  0  0  0  0  0  0  0  0  0  0
   -0.8459  -16.3015   10.0239 H   0  0  0  0  0  0  0  0  0  0  0  0
    0.6673  -13.7896   11.4209 H   0  0  0  0  0  0  0  0  0  0  0  0
   -0.1315  -13.4734   12.8592 H   0  0  0  0  0  0  0  0  0  0  0  0
    0.2938  -11.1219   10.9982 H   0  0  0  0  0  0  0  0  0  0  0  0
    3.0680  -11.5201   10.9877 H   0  0  0  0  0  0  0  0  0  0  0  0
    2.3347  -10.0496   11.0320 H   0  0  0  0  0  0  0  0  0  0  0  0
    3.4875   -7.8360   12.0745 H   0  0  0  0  0  0  0  0  0  0  0  0
    4.6084   -6.2381   13.1366 H   0  0  0  0  0  0  0  0  0  0  0  0
    5.7590  -10.8877   14.0467 H   0  0  0  0  0  0  0  0  0  0  0  0
   -6.0404  -17.0793   13.3680 H   0  0  0  0  0  0  0  0  0  0  0  0
   -5.2029  -19.4354   12.6050 H   0  0  0  0  0  0  0  0  0  0  0  0
   -6.9022  -21.2597   12.2867 H   0  0  0  0  0  0  0  0  0  0  0  0
  1  2  1  0
  2  3  2  0
  3  4  1  0
  4  5  2  0
  5  6  1  0
  6  7  2  0
  6  8  1  0
  8  9  1  0
  9 10  1  0
  9 11  1  0
 11 12  1  0
 12 13  1  0
 13 14  1  0
 14 15  1  0
 15 16  2  0
 16 17  1  0
 17 18  1  0
  5 19  1  0
 19 20  2  0
 20 21  1  0
 21 22  2  0
 22 23  1  0
 23  2  1  0
 22  4  1  0
 18 14  2  0
  1 24  1  0
  1 25  1  0
  1 26  1  0
  8 27  1  0
  9 28  1  0
 10 29  1  0
 10 30  1  0
 10 31  1  0
 11 32  1  0
 11 33  1  0
 12 34  1  0
 13 35  1  0
 13 36  1  0
 15 37  1  0
 16 38  1  0
 18 39  1  0
 19 40  1  0
 20 41  1  0
 21 42  1  0
M  END
>  <Energy>  (113) 
1139.4020866369908

>  <compound_id>  (113) 
11167

>  <target_id>  (113) 
1

>  <reference_id>  (113) 
2

>  <inspiration_ids>  (113) 
[2, 66]

>  <energy_score>  (113) 
1044.8274565381223

>  <distance_score>  (113) 
8.324641936017343

>  <path>  (113) 
/opt/xchem-fragalysis-2/maxwin/BulkDock/SCRATCH/511014/C11167-P2/C11167-P2.minimised.mol

>  <scratch_subdir>  (113) 
/opt/xchem-fragalysis-2/maxwin/BulkDock/SCRATCH/511014/C11167-P2

>  <fragmenstein_runtime>  (113) 
19.383394956588745

>  <fragmenstein_outcome>  (113) 
too moved

>  <fragmenstein_mode>  (113) 
expansion

>  <fragmenstein_error>  (113) 


$$$$
C11167-P66
     RDKit          3D

 42 44  0  0  0  0  0  0  0  0999 V2000
   -4.2967  -14.8894    8.7564 C   0  0  0  0  0  0  0  0  0  0  0  0
   -2.8113  -15.4140    9.6336 C   0  0  0  0  0  0  0  0  0  0  0  0
   -2.2742  -14.8602   10.6822 N   0  0  0  0  0  0  0  0  0  0  0  0
   -0.9097  -14.8969   10.5029 C   0  0  0  0  0  0  0  0  0  0  0  0
    0.2548  -14.1179   10.8820 C   0  0  0  0  0  0  0  0  0  0  0  0
    0.8527  -12.6458   11.6293 C   0  0  0  0  0  0  0  0  0  0  0  0
    0.0892  -12.2872   12.4864 O   0  0  0  0  0  0  0  0  0  0  0  0
    2.4626  -11.8874   11.2874 N   0  0  0  0  0  0  0  0  0  0  0  0
    3.4296  -10.4940   12.2332 C   0  0  0  0  0  0  0  0  0  0  0  0
    3.0552   -9.8636   10.9928 C   0  0  0  0  0  0  0  0  0  0  0  0
    4.7052   -9.3659   13.5903 C   0  0  0  0  0  0  0  0  0  0  0  0
    6.1816   -7.9104   13.9101 N   0  0  0  0  0  0  0  0  0  0  0  0
    7.9946   -7.0930   14.6065 C   0  0  0  0  0  0  0  0  0  0  0  0
    8.7795   -5.0943   14.4717 C   0  0  0  0  0  0  0  0  0  0  0  0
    8.3674   -3.2931   14.7697 C   0  0  0  0  0  0  0  0  0  0  0  0
    9.3746   -2.3530   14.8989 C   0  0  0  0  0  0  0  0  0  0  0  0
   10.9211   -2.9866   15.0874 S   0  0  0  0  0  0  0  0  0  0  0  0
   10.3892   -4.5509   14.5738 C   0  0  0  0  0  0  0  0  0  0  0  0
    0.7180  -15.2428   11.5571 C   0  0  0  0  0  0  0  0  0  0  0  0
    0.9136  -16.5559   11.0064 C   0  0  0  0  0  0  0  0  0  0  0  0
    0.3728  -16.8526    9.7885 C   0  0  0  0  0  0  0  0  0  0  0  0
   -0.7674  -16.0896    9.7499 C   0  0  0  0  0  0  0  0  0  0  0  0
   -1.9530  -16.3436    9.0628 O   0  0  0  0  0  0  0  0  0  0  0  0
   -4.1940  -15.6421    7.9782 H   0  0  0  0  0  0  0  0  0  0  0  0
   -5.3035  -14.8385    9.1887 H   0  0  0  0  0  0  0  0  0  0  0  0
   -4.2349  -13.8582    8.3937 H   0  0  0  0  0  0  0  0  0  0  0  0
    2.9434  -12.4252   10.5753 H   0  0  0  0  0  0  0  0  0  0  0  0
    2.9097  -10.8754   13.1064 H   0  0  0  0  0  0  0  0  0  0  0  0
    3.6120  -10.3229   10.1634 H   0  0  0  0  0  0  0  0  0  0  0  0
    3.3997   -8.8366   11.2422 H   0  0  0  0  0  0  0  0  0  0  0  0
    1.9633   -9.8993   10.7926 H   0  0  0  0  0  0  0  0  0  0  0  0
    4.0586   -8.5562   13.8247 H   0  0  0  0  0  0  0  0  0  0  0  0
    5.0528  -10.2217   14.1692 H   0  0  0  0  0  0  0  0  0  0  0  0
    5.9889   -7.3012   13.1124 H   0  0  0  0  0  0  0  0  0  0  0  0
    8.1045   -7.1949   13.4855 H   0  0  0  0  0  0  0  0  0  0  0  0
    7.2884   -6.4503   15.3630 H   0  0  0  0  0  0  0  0  0  0  0  0
    7.3388   -2.9320   14.6885 H   0  0  0  0  0  0  0  0  0  0  0  0
    9.2305   -1.2915   14.8610 H   0  0  0  0  0  0  0  0  0  0  0  0
   10.9675   -4.6679   13.6673 H   0  0  0  0  0  0  0  0  0  0  0  0
    1.0133  -15.0409   12.5731 H   0  0  0  0  0  0  0  0  0  0  0  0
    1.4726  -17.3144   11.5519 H   0  0  0  0  0  0  0  0  0  0  0  0
    0.5280  -17.7776    9.2537 H   0  0  0  0  0  0  0  0  0  0  0  0
  1  2  1  0
  2  3  2  0
  3  4  1  0
  4  5  2  0
  5  6  1  0
  6  7  2  0
  6  8  1  0
  8  9  1  0
  9 10  1  0
  9 11  1  0
 11 12  1  0
 12 13  1  0
 13 14  1  0
 14 15  1  0
 15 16  2  0
 16 17  1  0
 17 18  1  0
  5 19  1  0
 19 20  2  0
 20 21  1  0
 21 22  2  0
 22 23  1  0
 23  2  1  0
 22  4  1  0
 18 14  2  0
  1 24  1  0
  1 25  1  0
  1 26  1  0
  8 27  1  0
  9 28  1  0
 10 29  1  0
 10 30  1  0
 10 31  1  0
 11 32  1  0
 11 33  1  0
 12 34  1  0
 13 35  1  0
 13 36  1  0
 15 37  1  0
 16 38  1  0
 18 39  1  0
 19 40  1  0
 20 41  1  0
 21 42  1  0
M  END
>  <Energy>  (114) 
1152.0580715955982

>  <compound_id>  (114) 
11167

>  <target_id>  (114) 
1

>  <reference_id>  (114) 
66

>  <inspiration_ids>  (114) 
[2, 66]

>  <energy_score>  (114) 
1057.4834414967363

>  <distance_score>  (114) 
8.848179161735358

>  <path>  (114) 
/opt/xchem-fragalysis-2/maxwin/BulkDock/SCRATCH/511014/C11167-P66/C11167-P66.minimised.mol

>  <scratch_subdir>  (114) 
/opt/xchem-fragalysis-2/maxwin/BulkDock/SCRATCH/511014/C11167-P66

>  <fragmenstein_runtime>  (114) 
14.540406942367554

>  <fragmenstein_outcome>  (114) 
too moved

>  <fragmenstein_mode>  (114) 
expansion

>  <fragmenstein_error>  (114) 


$$$$
C11150-P2
     RDKit          3D

 38 40  0  0  0  0  0  0  0  0999 V2000
   -6.8615  -19.5094   10.8725 C   0  0  0  0  0  0  0  0  0  0  0  0
   -5.7474  -19.6109   12.0450 C   0  0  0  0  0  0  0  0  0  0  0  0
   -3.8628  -19.9554   11.7671 C   0  0  0  0  0  0  0  0  0  0  0  0
   -6.8678  -21.1405   12.2367 C   0  0  0  0  0  0  0  0  0  0  0  0
   -5.5242  -18.0267   12.9535 C   0  0  0  0  0  0  0  0  0  0  0  0
   -5.7151  -16.6729   13.0125 N   0  0  0  0  0  0  0  0  0  0  0  0
   -4.7538  -15.9895   14.0242 C   0  0  0  0  0  0  0  0  0  0  0  0
   -4.1141  -14.7641   14.3687 C   0  0  0  0  0  0  0  0  0  0  0  0
   -2.6314  -14.8567   15.1407 C   0  0  0  0  0  0  0  0  0  0  0  0
   -1.0947  -14.0546   14.1319 N   0  0  0  0  0  0  0  0  0  0  0  0
    0.1305  -13.7065   12.3944 S   0  0  0  0  0  0  0  0  0  0  0  0
   -0.4814  -14.5233   11.3672 O   0  0  0  0  0  0  0  0  0  0  0  0
   -0.2496  -12.3378   12.7176 O   0  0  0  0  0  0  0  0  0  0  0  0
    1.3379  -12.4207   11.1309 C   0  0  0  0  0  0  0  0  0  0  0  0
    2.8009  -12.6437   10.2337 C   0  0  0  0  0  0  0  0  0  0  0  0
    3.3912  -11.5124    9.7483 C   0  0  0  0  0  0  0  0  0  0  0  0
    3.0983  -10.4228   10.9301 S   0  0  0  0  0  0  0  0  0  0  0  0
    1.4408  -11.0403   11.3156 C   0  0  0  0  0  0  0  0  0  0  0  0
   -2.4890  -15.8678   16.0674 C   0  0  0  0  0  0  0  0  0  0  0  0
   -3.2042  -17.0270   15.7500 C   0  0  0  0  0  0  0  0  0  0  0  0
   -4.0811  -16.9797   14.6342 C   0  0  0  0  0  0  0  0  0  0  0  0
   -4.2881  -17.9847   13.7420 O   0  0  0  0  0  0  0  0  0  0  0  0
   -6.7564  -18.8356   10.0457 H   0  0  0  0  0  0  0  0  0  0  0  0
   -7.1183  -20.3930   10.2772 H   0  0  0  0  0  0  0  0  0  0  0  0
   -7.8380  -19.4418   11.3362 H   0  0  0  0  0  0  0  0  0  0  0  0
   -3.0125  -19.4657   12.1838 H   0  0  0  0  0  0  0  0  0  0  0  0
   -3.5554  -20.8967   12.2727 H   0  0  0  0  0  0  0  0  0  0  0  0
   -3.5482  -19.9857   10.7057 H   0  0  0  0  0  0  0  0  0  0  0  0
   -6.8514  -21.7974   13.0851 H   0  0  0  0  0  0  0  0  0  0  0  0
   -6.8035  -21.9344   11.4782 H   0  0  0  0  0  0  0  0  0  0  0  0
   -7.9221  -20.9815   11.9902 H   0  0  0  0  0  0  0  0  0  0  0  0
   -4.3075  -13.9506   13.6785 H   0  0  0  0  0  0  0  0  0  0  0  0
   -0.3967  -13.9348   14.8222 H   0  0  0  0  0  0  0  0  0  0  0  0
    3.1506  -13.5751    9.7868 H   0  0  0  0  0  0  0  0  0  0  0  0
    4.1337  -11.3860    8.9805 H   0  0  0  0  0  0  0  0  0  0  0  0
    0.6765  -10.4217   11.7211 H   0  0  0  0  0  0  0  0  0  0  0  0
   -1.6763  -15.9068   16.7783 H   0  0  0  0  0  0  0  0  0  0  0  0
   -2.8798  -17.9845   16.1433 H   0  0  0  0  0  0  0  0  0  0  0  0
  1  2  1  0
  2  3  1  0
  2  4  1  0
  2  5  1  0
  5  6  2  0
  6  7  1  0
  7  8  2  0
  8  9  1  0
  9 10  1  0
 10 11  1  0
 11 12  2  0
 11 13  2  0
 11 14  1  0
 14 15  1  0
 15 16  2  0
 16 17  1  0
 17 18  1  0
  9 19  2  0
 19 20  1  0
 20 21  2  0
 21 22  1  0
 22  5  1  0
 21  7  1  0
 18 14  2  0
  1 23  1  0
  1 24  1  0
  1 25  1  0
  3 26  1  0
  3 27  1  0
  3 28  1  0
  4 29  1  0
  4 30  1  0
  4 31  1  0
  8 32  1  0
 10 33  1  0
 15 34  1  0
 16 35  1  0
 18 36  1  0
 19 37  1  0
 20 38  1  0
M  END
>  <Energy>  (115) 
711.17263416637059

>  <compound_id>  (115) 
11150

>  <target_id>  (115) 
1

>  <reference_id>  (115) 
2

>  <inspiration_ids>  (115) 
[2, 66]

>  <energy_score>  (115) 
653.7957155936622

>  <distance_score>  (115) 
12.574376267952998

>  <path>  (115) 
/opt/xchem-fragalysis-2/maxwin/BulkDock/SCRATCH/511014/C11150-P2/C11150-P2.minimised.mol

>  <scratch_subdir>  (115) 
/opt/xchem-fragalysis-2/maxwin/BulkDock/SCRATCH/511014/C11150-P2

>  <fragmenstein_runtime>  (115) 
7.777437925338745

>  <fragmenstein_outcome>  (115) 
too moved

>  <fragmenstein_mode>  (115) 
expansion

>  <fragmenstein_error>  (115) 


$$$$
C11150-P66
     RDKit          3D

 38 40  0  0  0  0  0  0  0  0999 V2000
   -9.3762  -19.4766   11.9300 C   0  0  0  0  0  0  0  0  0  0  0  0
   -8.0933  -20.2080   11.5167 C   0  0  0  0  0  0  0  0  0  0  0  0
   -8.5303  -21.8349   12.0749 C   0  0  0  0  0  0  0  0  0  0  0  0
   -8.5168  -20.4908    9.8823 C   0  0  0  0  0  0  0  0  0  0  0  0
   -6.5053  -19.1946   12.1237 C   0  0  0  0  0  0  0  0  0  0  0  0
   -5.2154  -19.2770   12.7249 N   0  0  0  0  0  0  0  0  0  0  0  0
   -4.8315  -18.0297   13.7535 C   0  0  0  0  0  0  0  0  0  0  0  0
   -3.6351  -17.3803   14.5752 C   0  0  0  0  0  0  0  0  0  0  0  0
   -3.4173  -15.8541   14.8511 C   0  0  0  0  0  0  0  0  0  0  0  0
   -1.8805  -14.8331   15.0738 N   0  0  0  0  0  0  0  0  0  0  0  0
   -0.2306  -13.9147   13.5997 S   0  0  0  0  0  0  0  0  0  0  0  0
    0.3941  -14.8939   12.7316 O   0  0  0  0  0  0  0  0  0  0  0  0
   -0.4688  -12.6546   12.9536 O   0  0  0  0  0  0  0  0  0  0  0  0
    1.4503  -12.6423   14.3191 C   0  0  0  0  0  0  0  0  0  0  0  0
    2.4333  -12.8663   15.8697 C   0  0  0  0  0  0  0  0  0  0  0  0
    3.6509  -12.0796   16.0205 C   0  0  0  0  0  0  0  0  0  0  0  0
    4.0003  -10.7201   14.5201 S   0  0  0  0  0  0  0  0  0  0  0  0
    2.0206  -11.3855   13.5275 C   0  0  0  0  0  0  0  0  0  0  0  0
   -4.6595  -15.2434   14.7784 C   0  0  0  0  0  0  0  0  0  0  0  0
   -5.8791  -15.9358   14.3309 C   0  0  0  0  0  0  0  0  0  0  0  0
   -5.8939  -17.2183   13.6730 C   0  0  0  0  0  0  0  0  0  0  0  0
   -6.8383  -17.8362   12.8005 O   0  0  0  0  0  0  0  0  0  0  0  0
  -10.0696  -20.0574   12.5450 H   0  0  0  0  0  0  0  0  0  0  0  0
   -9.8344  -19.2808   11.0035 H   0  0  0  0  0  0  0  0  0  0  0  0
   -9.3430  -18.4655   12.3515 H   0  0  0  0  0  0  0  0  0  0  0  0
   -9.5936  -21.9052   12.3387 H   0  0  0  0  0  0  0  0  0  0  0  0
   -7.9469  -22.1788   12.9395 H   0  0  0  0  0  0  0  0  0  0  0  0
   -8.4491  -22.6042   11.3017 H   0  0  0  0  0  0  0  0  0  0  0  0
   -7.9263  -19.9402    9.1633 H   0  0  0  0  0  0  0  0  0  0  0  0
   -9.5118  -20.2121    9.5312 H   0  0  0  0  0  0  0  0  0  0  0  0
   -8.6340  -21.5483    9.6390 H   0  0  0  0  0  0  0  0  0  0  0  0
   -2.8150  -18.0732   14.7569 H   0  0  0  0  0  0  0  0  0  0  0  0
   -1.7091  -14.4473   16.0141 H   0  0  0  0  0  0  0  0  0  0  0  0
    2.1019  -13.6070   16.5958 H   0  0  0  0  0  0  0  0  0  0  0  0
    4.4174  -12.0423   16.7807 H   0  0  0  0  0  0  0  0  0  0  0  0
    1.8599  -11.1530   12.4362 H   0  0  0  0  0  0  0  0  0  0  0  0
   -4.7665  -14.1963   15.0401 H   0  0  0  0  0  0  0  0  0  0  0  0
   -6.7964  -15.3565   14.3880 H   0  0  0  0  0  0  0  0  0  0  0  0
  1  2  1  0
  2  3  1  0
  2  4  1  0
  2  5  1  0
  5  6  2  0
  6  7  1  0
  7  8  2  0
  8  9  1  0
  9 10  1  0
 10 11  1  0
 11 12  2  0
 11 13  2  0
 11 14  1  0
 14 15  1  0
 15 16  2  0
 16 17  1  0
 17 18  1  0
  9 19  2  0
 19 20  1  0
 20 21  2  0
 21 22  1  0
 22  5  1  0
 21  7  1  0
 18 14  2  0
  1 23  1  0
  1 24  1  0
  1 25  1  0
  3 26  1  0
  3 27  1  0
  3 28  1  0
  4 29  1  0
  4 30  1  0
  4 31  1  0
  8 32  1  0
 10 33  1  0
 15 34  1  0
 16 35  1  0
 18 36  1  0
 19 37  1  0
 20 38  1  0
M  END
>  <Energy>  (116) 
652.77952553923376

>  <compound_id>  (116) 
11150

>  <target_id>  (116) 
1

>  <reference_id>  (116) 
66

>  <inspiration_ids>  (116) 
[2, 66]

>  <energy_score>  (116) 
595.4026069665216

>  <distance_score>  (116) 
11.705889103078311

>  <path>  (116) 
/opt/xchem-fragalysis-2/maxwin/BulkDock/SCRATCH/511014/C11150-P66/C11150-P66.minimised.mol

>  <scratch_subdir>  (116) 
/opt/xchem-fragalysis-2/maxwin/BulkDock/SCRATCH/511014/C11150-P66

>  <fragmenstein_runtime>  (116) 
7.661330699920654

>  <fragmenstein_outcome>  (116) 
too moved

>  <fragmenstein_mode>  (116) 
expansion

>  <fragmenstein_error>  (116) 


$$$$
C11168-P2
     RDKit          3D

 40 42  0  0  0  0  0  0  0  0999 V2000
   -9.2087  -19.7098   11.5863 C   0  0  0  0  0  0  0  0  0  0  0  0
   -7.5916  -19.8822   11.3832 C   0  0  0  0  0  0  0  0  0  0  0  0
   -7.4156  -21.4074   11.7923 C   0  0  0  0  0  0  0  0  0  0  0  0
   -7.6889  -20.0138    9.8189 C   0  0  0  0  0  0  0  0  0  0  0  0
   -6.5478  -18.4370   12.1155 C   0  0  0  0  0  0  0  0  0  0  0  0
   -6.3703  -17.1122   11.8277 N   0  0  0  0  0  0  0  0  0  0  0  0
   -5.7037  -15.9596   13.0265 C   0  0  0  0  0  0  0  0  0  0  0  0
   -4.5242  -14.5821   12.8506 C   0  0  0  0  0  0  0  0  0  0  0  0
   -3.0893  -14.0793   13.6860 C   0  0  0  0  0  0  0  0  0  0  0  0
   -1.1754  -13.5403   13.8555 N   0  0  0  0  0  0  0  0  0  0  0  0
   -0.2267  -12.2657   13.0560 C   0  0  0  0  0  0  0  0  0  0  0  0
   -0.5316  -11.5101   12.1334 O   0  0  0  0  0  0  0  0  0  0  0  0
    1.5593  -11.8053   13.8477 C   0  0  0  0  0  0  0  0  0  0  0  0
    3.3825  -10.7197   14.1614 C   0  0  0  0  0  0  0  0  0  0  0  0
    4.9220  -11.3017   14.1970 C   0  0  0  0  0  0  0  0  0  0  0  0
    5.9560  -10.6238   14.8055 C   0  0  0  0  0  0  0  0  0  0  0  0
    5.3898   -9.2370   15.5231 S   0  0  0  0  0  0  0  0  0  0  0  0
    3.8169   -9.5549   14.9578 C   0  0  0  0  0  0  0  0  0  0  0  0
   -2.8586  -15.2894   15.1679 C   0  0  0  0  0  0  0  0  0  0  0  0
   -3.8979  -16.6349   15.0616 C   0  0  0  0  0  0  0  0  0  0  0  0
   -5.2277  -16.8120   13.9639 C   0  0  0  0  0  0  0  0  0  0  0  0
   -5.9238  -18.3745   13.2757 O   0  0  0  0  0  0  0  0  0  0  0  0
   -9.5055  -18.8265   12.1554 H   0  0  0  0  0  0  0  0  0  0  0  0
   -9.6892  -20.5943   12.0061 H   0  0  0  0  0  0  0  0  0  0  0  0
   -9.7884  -19.6272   10.6686 H   0  0  0  0  0  0  0  0  0  0  0  0
   -7.1492  -22.0843   10.9861 H   0  0  0  0  0  0  0  0  0  0  0  0
   -6.7588  -21.6278   12.6053 H   0  0  0  0  0  0  0  0  0  0  0  0
   -8.3571  -21.9302   12.0105 H   0  0  0  0  0  0  0  0  0  0  0  0
   -8.6713  -19.9715    9.3252 H   0  0  0  0  0  0  0  0  0  0  0  0
   -7.1286  -19.2343    9.3242 H   0  0  0  0  0  0  0  0  0  0  0  0
   -7.5431  -21.0323    9.4738 H   0  0  0  0  0  0  0  0  0  0  0  0
   -5.3562  -13.8881   12.7345 H   0  0  0  0  0  0  0  0  0  0  0  0
   -0.6661  -13.9157   14.6251 H   0  0  0  0  0  0  0  0  0  0  0  0
    1.6651  -11.2694   12.7924 H   0  0  0  0  0  0  0  0  0  0  0  0
    1.5814  -12.7338   14.4092 H   0  0  0  0  0  0  0  0  0  0  0  0
    5.2303  -12.2356   13.7699 H   0  0  0  0  0  0  0  0  0  0  0  0
    6.9976  -10.9076   14.8636 H   0  0  0  0  0  0  0  0  0  0  0  0
    3.2742   -8.7186   15.3337 H   0  0  0  0  0  0  0  0  0  0  0  0
   -2.1586  -15.0138   15.9264 H   0  0  0  0  0  0  0  0  0  0  0  0
   -3.7019  -17.4870   15.7091 H   0  0  0  0  0  0  0  0  0  0  0  0
  1  2  1  0
  2  3  1  0
  2  4  1  0
  2  5  1  0
  5  6  2  0
  6  7  1  0
  7  8  2  0
  8  9  1  0
  9 10  1  0
 10 11  1  0
 11 12  2  0
 11 13  1  0
 13 14  1  0
 14 15  1  0
 15 16  2  0
 16 17  1  0
 17 18  1  0
  9 19  2  0
 19 20  1  0
 20 21  2  0
 21 22  1  0
 22  5  1  0
 21  7  1  0
 18 14  2  0
  1 23  1  0
  1 24  1  0
  1 25  1  0
  3 26  1  0
  3 27  1  0
  3 28  1  0
  4 29  1  0
  4 30  1  0
  4 31  1  0
  8 32  1  0
 10 33  1  0
 13 34  1  0
 13 35  1  0
 15 36  1  0
 16 37  1  0
 18 38  1  0
 19 39  1  0
 20 40  1  0
M  END
>  <Energy>  (117) 
1047.1543298847434

>  <compound_id>  (117) 
11168

>  <target_id>  (117) 
1

>  <reference_id>  (117) 
2

>  <inspiration_ids>  (117) 
[2, 66]

>  <energy_score>  (117) 
937.9333931024804

>  <distance_score>  (117) 
10.49223369867166

>  <path>  (117) 
/opt/xchem-fragalysis-2/maxwin/BulkDock/SCRATCH/511014/C11168-P2/C11168-P2.minimised.mol

>  <scratch_subdir>  (117) 
/opt/xchem-fragalysis-2/maxwin/BulkDock/SCRATCH/511014/C11168-P2

>  <fragmenstein_runtime>  (117) 
10.46169114112854

>  <fragmenstein_outcome>  (117) 
too moved

>  <fragmenstein_mode>  (117) 
expansion

>  <fragmenstein_error>  (117) 


$$$$
C11168-P66
     RDKit          3D

 40 42  0  0  0  0  0  0  0  0999 V2000
  -10.0022  -19.3303    8.3835 C   0  0  0  0  0  0  0  0  0  0  0  0
   -8.3299  -18.7805    8.0127 C   0  0  0  0  0  0  0  0  0  0  0  0
   -8.0796  -19.9586    9.0253 C   0  0  0  0  0  0  0  0  0  0  0  0
   -8.6923  -19.6465    6.3190 C   0  0  0  0  0  0  0  0  0  0  0  0
   -7.2919  -17.0136    8.2050 C   0  0  0  0  0  0  0  0  0  0  0  0
   -7.2191  -15.4764    8.1975 N   0  0  0  0  0  0  0  0  0  0  0  0
   -5.6219  -14.8603    8.8332 C   0  0  0  0  0  0  0  0  0  0  0  0
   -3.9812  -15.3935    8.7739 C   0  0  0  0  0  0  0  0  0  0  0  0
   -2.6663  -15.5922    9.9184 C   0  0  0  0  0  0  0  0  0  0  0  0
   -1.4394  -14.7586   10.0432 N   0  0  0  0  0  0  0  0  0  0  0  0
   -0.1734  -14.9239   10.9341 C   0  0  0  0  0  0  0  0  0  0  0  0
    0.1521  -15.8262   11.6706 O   0  0  0  0  0  0  0  0  0  0  0  0
    0.9466  -13.4304   10.9911 C   0  0  0  0  0  0  0  0  0  0  0  0
    2.6780  -12.7496   10.4485 C   0  0  0  0  0  0  0  0  0  0  0  0
    3.2026  -11.3971   10.5154 C   0  0  0  0  0  0  0  0  0  0  0  0
    4.4009  -11.2217    9.8333 C   0  0  0  0  0  0  0  0  0  0  0  0
    5.1414  -12.6461    9.3520 S   0  0  0  0  0  0  0  0  0  0  0  0
    3.7062  -13.4627    9.7200 C   0  0  0  0  0  0  0  0  0  0  0  0
   -3.3459  -15.3711   11.2278 C   0  0  0  0  0  0  0  0  0  0  0  0
   -5.2209  -15.3848   11.6620 C   0  0  0  0  0  0  0  0  0  0  0  0
   -5.9272  -14.9962   10.1391 C   0  0  0  0  0  0  0  0  0  0  0  0
   -6.4664  -16.5228    9.4032 O   0  0  0  0  0  0  0  0  0  0  0  0
  -10.4749  -19.7874    7.5357 H   0  0  0  0  0  0  0  0  0  0  0  0
  -10.6502  -18.8451    9.0921 H   0  0  0  0  0  0  0  0  0  0  0  0
  -10.0609  -20.3563    8.7866 H   0  0  0  0  0  0  0  0  0  0  0  0
   -8.1751  -20.9101    8.4982 H   0  0  0  0  0  0  0  0  0  0  0  0
   -7.3468  -19.6132    9.7404 H   0  0  0  0  0  0  0  0  0  0  0  0
   -8.7422  -20.2610    9.8798 H   0  0  0  0  0  0  0  0  0  0  0  0
   -9.7273  -19.6287    5.9501 H   0  0  0  0  0  0  0  0  0  0  0  0
   -8.1807  -19.1912    5.4576 H   0  0  0  0  0  0  0  0  0  0  0  0
   -8.4962  -20.7167    6.4050 H   0  0  0  0  0  0  0  0  0  0  0  0
   -3.8270  -16.1190    7.9518 H   0  0  0  0  0  0  0  0  0  0  0  0
   -1.3544  -13.9602    9.5121 H   0  0  0  0  0  0  0  0  0  0  0  0
    0.9813  -13.5134   12.0822 H   0  0  0  0  0  0  0  0  0  0  0  0
    0.2989  -12.5391   10.9552 H   0  0  0  0  0  0  0  0  0  0  0  0
    2.6474  -10.5825   10.9497 H   0  0  0  0  0  0  0  0  0  0  0  0
    4.9396  -10.3167    9.6072 H   0  0  0  0  0  0  0  0  0  0  0  0
    3.6602  -14.4932    9.3833 H   0  0  0  0  0  0  0  0  0  0  0  0
   -2.9252  -14.7264   11.9291 H   0  0  0  0  0  0  0  0  0  0  0  0
   -5.3685  -14.7708   12.5576 H   0  0  0  0  0  0  0  0  0  0  0  0
  1  2  1  0
  2  3  1  0
  2  4  1  0
  2  5  1  0
  5  6  2  0
  6  7  1  0
  7  8  2  0
  8  9  1  0
  9 10  1  0
 10 11  1  0
 11 12  2  0
 11 13  1  0
 13 14  1  0
 14 15  1  0
 15 16  2  0
 16 17  1  0
 17 18  1  0
  9 19  2  0
 19 20  1  0
 20 21  2  0
 21 22  1  0
 22  5  1  0
 21  7  1  0
 18 14  2  0
  1 23  1  0
  1 24  1  0
  1 25  1  0
  3 26  1  0
  3 27  1  0
  3 28  1  0
  4 29  1  0
  4 30  1  0
  4 31  1  0
  8 32  1  0
 10 33  1  0
 13 34  1  0
 13 35  1  0
 15 36  1  0
 16 37  1  0
 18 38  1  0
 19 39  1  0
 20 40  1  0
M  END
>  <Energy>  (118) 
975.1395305523389

>  <compound_id>  (118) 
11168

>  <target_id>  (118) 
1

>  <reference_id>  (118) 
66

>  <inspiration_ids>  (118) 
[2, 66]

>  <energy_score>  (118) 
865.9185937700662

>  <distance_score>  (118) 
11.729973350245897

>  <path>  (118) 
/opt/xchem-fragalysis-2/maxwin/BulkDock/SCRATCH/511014/C11168-P66/C11168-P66.minimised.mol

>  <scratch_subdir>  (118) 
/opt/xchem-fragalysis-2/maxwin/BulkDock/SCRATCH/511014/C11168-P66

>  <fragmenstein_runtime>  (118) 
14.024818420410156

>  <fragmenstein_outcome>  (118) 
too moved

>  <fragmenstein_mode>  (118) 
expansion

>  <fragmenstein_error>  (118) 


$$$$
C11169-P2
     RDKit          3D

 41 43  0  0  0  0  0  0  0  0999 V2000
   -2.0217  -16.8364    3.8384 C   0  0  0  0  0  0  0  0  0  0  0  0
   -0.9532  -17.7464    4.4633 C   0  0  0  0  0  0  0  0  0  0  0  0
   -0.1603  -18.4228    3.3307 C   0  0  0  0  0  0  0  0  0  0  0  0
   -1.6183  -18.8286    5.3213 C   0  0  0  0  0  0  0  0  0  0  0  0
    0.0041  -16.9213    5.3008 C   0  0  0  0  0  0  0  0  0  0  0  0
    0.3328  -15.6395    5.1976 N   0  0  0  0  0  0  0  0  0  0  0  0
    1.3219  -15.4515    6.1561 C   0  0  0  0  0  0  0  0  0  0  0  0
    2.0512  -14.2881    6.5978 C   0  0  0  0  0  0  0  0  0  0  0  0
    2.9273  -14.3473    7.7505 C   0  0  0  0  0  0  0  0  0  0  0  0
    3.1496  -13.0972    8.8255 N   0  0  0  0  0  0  0  0  0  0  0  0
    3.6851  -12.8112    9.7378 C   0  0  0  0  0  0  0  0  0  0  0  0
    4.6545  -14.0916    9.9807 O   0  0  0  0  0  0  0  0  0  0  0  0
    3.9357  -11.3768   11.0122 C   0  0  0  0  0  0  0  0  0  0  0  0
    2.5910  -10.8603   11.1361 O   0  0  0  0  0  0  0  0  0  0  0  0
    5.0461  -11.0868   12.7475 C   0  0  0  0  0  0  0  0  0  0  0  0
    4.6362  -10.3801   14.0647 C   0  0  0  0  0  0  0  0  0  0  0  0
    5.6289  -10.1374   14.9979 C   0  0  0  0  0  0  0  0  0  0  0  0
    6.9791  -11.0744   14.6390 S   0  0  0  0  0  0  0  0  0  0  0  0
    6.0690  -11.8893   13.4529 C   0  0  0  0  0  0  0  0  0  0  0  0
    3.1257  -15.6580    8.2737 C   0  0  0  0  0  0  0  0  0  0  0  0
    2.4404  -16.8224    7.8338 C   0  0  0  0  0  0  0  0  0  0  0  0
    1.5300  -16.6549    6.8071 C   0  0  0  0  0  0  0  0  0  0  0  0
    0.6991  -17.5967    6.2733 O   0  0  0  0  0  0  0  0  0  0  0  0
   -2.5689  -16.2757    4.6010 H   0  0  0  0  0  0  0  0  0  0  0  0
   -2.7495  -17.4165    3.2600 H   0  0  0  0  0  0  0  0  0  0  0  0
   -1.5731  -16.1001    3.1605 H   0  0  0  0  0  0  0  0  0  0  0  0
    0.3342  -17.6814    2.6917 H   0  0  0  0  0  0  0  0  0  0  0  0
    0.6215  -19.0815    3.7275 H   0  0  0  0  0  0  0  0  0  0  0  0
   -0.8163  -19.0284    2.6951 H   0  0  0  0  0  0  0  0  0  0  0  0
   -2.3967  -19.3566    4.7598 H   0  0  0  0  0  0  0  0  0  0  0  0
   -2.0664  -18.3937    6.2201 H   0  0  0  0  0  0  0  0  0  0  0  0
   -0.8943  -19.5801    5.6585 H   0  0  0  0  0  0  0  0  0  0  0  0
    1.7801  -13.3391    6.1416 H   0  0  0  0  0  0  0  0  0  0  0  0
    2.5339  -12.9396    8.0467 H   0  0  0  0  0  0  0  0  0  0  0  0
    4.2949  -10.7224   10.1929 H   0  0  0  0  0  0  0  0  0  0  0  0
    2.6022  -10.2292   11.8766 H   0  0  0  0  0  0  0  0  0  0  0  0
    3.7193   -9.8963   14.2485 H   0  0  0  0  0  0  0  0  0  0  0  0
    5.5829   -9.5010   15.8679 H   0  0  0  0  0  0  0  0  0  0  0  0
    6.5060  -12.8391   13.1604 H   0  0  0  0  0  0  0  0  0  0  0  0
    3.7588  -15.8176    9.1410 H   0  0  0  0  0  0  0  0  0  0  0  0
    2.5857  -17.7800    8.3205 H   0  0  0  0  0  0  0  0  0  0  0  0
  1  2  1  0
  2  3  1  0
  2  4  1  0
  2  5  1  0
  5  6  2  0
  6  7  1  0
  7  8  2  0
  8  9  1  0
  9 10  1  0
 10 11  1  0
 11 12  2  0
 11 13  1  0
 13 14  1  0
 13 15  1  0
 15 16  1  0
 16 17  2  0
 17 18  1  0
 18 19  1  0
  9 20  2  0
 20 21  1  0
 21 22  2  0
 22 23  1  0
 23  5  1  0
 22  7  1  0
 19 15  2  0
  1 24  1  0
  1 25  1  0
  1 26  1  0
  3 27  1  0
  3 28  1  0
  3 29  1  0
  4 30  1  0
  4 31  1  0
  4 32  1  0
  8 33  1  0
 10 34  1  0
 13 35  1  0
 14 36  1  0
 16 37  1  0
 17 38  1  0
 19 39  1  0
 20 40  1  0
 21 41  1  0
M  END
>  <Energy>  (119) 
483.91520605527802

>  <compound_id>  (119) 
11169

>  <target_id>  (119) 
1

>  <reference_id>  (119) 
2

>  <inspiration_ids>  (119) 
[2, 66]

>  <energy_score>  (119) 
371.3002325738587

>  <distance_score>  (119) 
12.529993240147041

>  <path>  (119) 
/opt/xchem-fragalysis-2/maxwin/BulkDock/SCRATCH/511014/C11169-P2/C11169-P2.minimised.mol

>  <scratch_subdir>  (119) 
/opt/xchem-fragalysis-2/maxwin/BulkDock/SCRATCH/511014/C11169-P2

>  <fragmenstein_runtime>  (119) 
12.029068231582642

>  <fragmenstein_outcome>  (119) 
too moved

>  <fragmenstein_mode>  (119) 
expansion

>  <fragmenstein_error>  (119) 


$$$$
C11169-P66
     RDKit          3D

 41 43  0  0  0  0  0  0  0  0999 V2000
   -9.5461  -19.4950    8.1623 C   0  0  0  0  0  0  0  0  0  0  0  0
   -8.1417  -19.8531    8.7189 C   0  0  0  0  0  0  0  0  0  0  0  0
   -8.6172  -21.2828    7.8610 C   0  0  0  0  0  0  0  0  0  0  0  0
   -8.5469  -20.3812   10.2653 C   0  0  0  0  0  0  0  0  0  0  0  0
   -6.5365  -18.6320    8.7252 C   0  0  0  0  0  0  0  0  0  0  0  0
   -5.8891  -17.3695    8.4297 N   0  0  0  0  0  0  0  0  0  0  0  0
   -3.9297  -17.4273    8.3701 C   0  0  0  0  0  0  0  0  0  0  0  0
   -2.7032  -16.8209    7.7875 C   0  0  0  0  0  0  0  0  0  0  0  0
   -1.3284  -17.2761    7.8825 C   0  0  0  0  0  0  0  0  0  0  0  0
   -0.0335  -16.9689    7.3070 N   0  0  0  0  0  0  0  0  0  0  0  0
    0.3392  -16.1398    6.1503 C   0  0  0  0  0  0  0  0  0  0  0  0
   -0.3440  -15.5708    5.3416 O   0  0  0  0  0  0  0  0  0  0  0  0
    1.9506  -16.1076    6.0495 C   0  0  0  0  0  0  0  0  0  0  0  0
    2.4339  -17.3840    6.5213 O   0  0  0  0  0  0  0  0  0  0  0  0
    2.7970  -14.9576    6.6995 C   0  0  0  0  0  0  0  0  0  0  0  0
    3.7700  -15.1488    7.7644 C   0  0  0  0  0  0  0  0  0  0  0  0
    4.5485  -14.0413    8.0316 C   0  0  0  0  0  0  0  0  0  0  0  0
    4.1102  -12.7101    7.0642 S   0  0  0  0  0  0  0  0  0  0  0  0
    2.8984  -13.6403    6.2581 C   0  0  0  0  0  0  0  0  0  0  0  0
   -1.1445  -18.2353    8.8305 C   0  0  0  0  0  0  0  0  0  0  0  0
   -2.2298  -18.8594    9.3838 C   0  0  0  0  0  0  0  0  0  0  0  0
   -3.5403  -18.6215    8.9661 C   0  0  0  0  0  0  0  0  0  0  0  0
   -4.8082  -19.4228    9.0757 O   0  0  0  0  0  0  0  0  0  0  0  0
   -9.6721  -19.6575    7.0828 H   0  0  0  0  0  0  0  0  0  0  0  0
   -9.9663  -18.6004    8.4514 H   0  0  0  0  0  0  0  0  0  0  0  0
  -10.3550  -20.0900    8.6115 H   0  0  0  0  0  0  0  0  0  0  0  0
   -8.5880  -21.1756    6.7602 H   0  0  0  0  0  0  0  0  0  0  0  0
   -8.2594  -22.2387    8.1800 H   0  0  0  0  0  0  0  0  0  0  0  0
   -9.6626  -21.6085    8.0444 H   0  0  0  0  0  0  0  0  0  0  0  0
   -8.7729  -21.4509   10.3229 H   0  0  0  0  0  0  0  0  0  0  0  0
   -7.8490  -20.0430   11.0190 H   0  0  0  0  0  0  0  0  0  0  0  0
   -9.4238  -19.9042   10.6787 H   0  0  0  0  0  0  0  0  0  0  0  0
   -2.9923  -16.1102    7.0659 H   0  0  0  0  0  0  0  0  0  0  0  0
    0.8118  -17.3608    7.7230 H   0  0  0  0  0  0  0  0  0  0  0  0
    2.1775  -16.0779    4.9745 H   0  0  0  0  0  0  0  0  0  0  0  0
    2.2468  -18.0183    5.8055 H   0  0  0  0  0  0  0  0  0  0  0  0
    3.9241  -16.0990    8.2638 H   0  0  0  0  0  0  0  0  0  0  0  0
    5.3648  -13.9756    8.7341 H   0  0  0  0  0  0  0  0  0  0  0  0
    2.3247  -13.1704    5.4697 H   0  0  0  0  0  0  0  0  0  0  0  0
   -0.1597  -18.5345    9.1831 H   0  0  0  0  0  0  0  0  0  0  0  0
   -1.9867  -19.3330   10.3243 H   0  0  0  0  0  0  0  0  0  0  0  0
  1  2  1  0
  2  3  1  0
  2  4  1  0
  2  5  1  0
  5  6  2  0
  6  7  1  0
  7  8  2  0
  8  9  1  0
  9 10  1  0
 10 11  1  0
 11 12  2  0
 11 13  1  0
 13 14  1  0
 13 15  1  0
 15 16  1  0
 16 17  2  0
 17 18  1  0
 18 19  1  0
  9 20  2  0
 20 21  1  0
 21 22  2  0
 22 23  1  0
 23  5  1  0
 22  7  1  0
 19 15  2  0
  1 24  1  0
  1 25  1  0
  1 26  1  0
  3 27  1  0
  3 28  1  0
  3 29  1  0
  4 30  1  0
  4 31  1  0
  4 32  1  0
  8 33  1  0
 10 34  1  0
 13 35  1  0
 14 36  1  0
 16 37  1  0
 17 38  1  0
 19 39  1  0
 20 40  1  0
 21 41  1  0
M  END
>  <Energy>  (120) 
515.37678461968767

>  <compound_id>  (120) 
11169

>  <target_id>  (120) 
1

>  <reference_id>  (120) 
66

>  <inspiration_ids>  (120) 
[2, 66]

>  <energy_score>  (120) 
402.76181113827886

>  <distance_score>  (120) 
13.917820222248624

>  <path>  (120) 
/opt/xchem-fragalysis-2/maxwin/BulkDock/SCRATCH/511014/C11169-P66/C11169-P66.minimised.mol

>  <scratch_subdir>  (120) 
/opt/xchem-fragalysis-2/maxwin/BulkDock/SCRATCH/511014/C11169-P66

>  <fragmenstein_runtime>  (120) 
9.471717596054077

>  <fragmenstein_outcome>  (120) 
too moved

>  <fragmenstein_mode>  (120) 
expansion

>  <fragmenstein_error>  (120) 


$$$$
C11170-P2
     RDKit          3D

 42 44  0  0  0  0  0  0  0  0999 V2000
   -2.2146  -15.8068    9.6485 C   0  0  0  0  0  0  0  0  0  0  0  0
   -2.8793  -17.1655    8.9511 C   0  0  0  0  0  0  0  0  0  0  0  0
   -4.2813  -17.2942    7.8883 N   0  0  0  0  0  0  0  0  0  0  0  0
   -6.1420  -17.6989    8.2924 C   0  0  0  0  0  0  0  0  0  0  0  0
   -6.2659  -17.7550    9.3840 O   0  0  0  0  0  0  0  0  0  0  0  0
   -7.8993  -18.0720    7.4410 C   0  0  0  0  0  0  0  0  0  0  0  0
   -8.3952  -18.6951    6.0793 C   0  0  0  0  0  0  0  0  0  0  0  0
   -9.4219  -19.6525    5.6972 C   0  0  0  0  0  0  0  0  0  0  0  0
   -9.8937  -20.4613    6.7025 C   0  0  0  0  0  0  0  0  0  0  0  0
  -10.6460  -21.6007    6.6767 N   0  0  0  0  0  0  0  0  0  0  0  0
  -10.5406  -22.0446    7.9031 C   0  0  0  0  0  0  0  0  0  0  0  0
  -11.0251  -23.1790    8.4081 N   0  0  0  0  0  0  0  0  0  0  0  0
   -9.8207  -21.2604    8.7525 O   0  0  0  0  0  0  0  0  0  0  0  0
   -9.4283  -20.2127    7.9677 C   0  0  0  0  0  0  0  0  0  0  0  0
   -8.5306  -19.1564    8.2998 C   0  0  0  0  0  0  0  0  0  0  0  0
   -3.6513  -16.1155    7.7076 C   0  0  0  0  0  0  0  0  0  0  0  0
   -4.5288  -14.9850    6.3441 C   0  0  0  0  0  0  0  0  0  0  0  0
   -2.0577  -17.3163    7.1466 C   0  0  0  0  0  0  0  0  0  0  0  0
   -0.2329  -17.1067    6.8921 C   0  0  0  0  0  0  0  0  0  0  0  0
    0.7938  -17.0620    7.9465 C   0  0  0  0  0  0  0  0  0  0  0  0
    2.0340  -16.6307    7.5254 C   0  0  0  0  0  0  0  0  0  0  0  0
    2.0509  -16.3521    5.8492 S   0  0  0  0  0  0  0  0  0  0  0  0
    0.3963  -16.7980    5.6890 C   0  0  0  0  0  0  0  0  0  0  0  0
   -2.1889  -14.9075    9.1307 H   0  0  0  0  0  0  0  0  0  0  0  0
   -2.7782  -15.3547   10.4739 H   0  0  0  0  0  0  0  0  0  0  0  0
   -1.1733  -15.9981    9.9469 H   0  0  0  0  0  0  0  0  0  0  0  0
   -3.1360  -17.8291    9.7404 H   0  0  0  0  0  0  0  0  0  0  0  0
   -2.2238  -18.0527    8.7971 H   0  0  0  0  0  0  0  0  0  0  0  0
   -7.7456  -18.7732    5.2093 H   0  0  0  0  0  0  0  0  0  0  0  0
   -9.6049  -19.8995    4.6572 H   0  0  0  0  0  0  0  0  0  0  0  0
  -11.2264  -23.8945    7.7188 H   0  0  0  0  0  0  0  0  0  0  0  0
  -10.5241  -23.5362    9.2144 H   0  0  0  0  0  0  0  0  0  0  0  0
   -7.9001  -19.4759    9.1569 H   0  0  0  0  0  0  0  0  0  0  0  0
   -3.9292  -15.5340    8.5772 H   0  0  0  0  0  0  0  0  0  0  0  0
   -4.8907  -15.4910    5.4401 H   0  0  0  0  0  0  0  0  0  0  0  0
   -4.2036  -14.1863    5.6568 H   0  0  0  0  0  0  0  0  0  0  0  0
   -5.2083  -14.3216    6.8815 H   0  0  0  0  0  0  0  0  0  0  0  0
   -1.4774  -16.6764    7.8412 H   0  0  0  0  0  0  0  0  0  0  0  0
   -2.2150  -17.5847    6.0921 H   0  0  0  0  0  0  0  0  0  0  0  0
    0.6111  -17.2467    8.9908 H   0  0  0  0  0  0  0  0  0  0  0  0
    2.9184  -16.4722    8.1250 H   0  0  0  0  0  0  0  0  0  0  0  0
   -0.0575  -16.7440    4.7100 H   0  0  0  0  0  0  0  0  0  0  0  0
  1  2  1  0
  2  3  1  0
  3  4  1  0
  4  5  2  0
  4  6  1  0
  6  7  2  0
  7  8  1  0
  8  9  2  0
  9 10  1  0
 10 11  2  0
 11 12  1  0
 11 13  1  0
 13 14  1  0
 14 15  2  0
  3 16  1  0
 16 17  1  0
 16 18  1  0
 18 19  1  0
 19 20  1  0
 20 21  2  0
 21 22  1  0
 22 23  1  0
 15  6  1  0
 23 19  2  0
 14  9  1  0
  1 24  1  0
  1 25  1  0
  1 26  1  0
  2 27  1  0
  2 28  1  0
  7 29  1  0
  8 30  1  0
 12 31  1  0
 12 32  1  0
 15 33  1  0
 16 34  1  0
 17 35  1  0
 17 36  1  0
 17 37  1  0
 18 38  1  0
 18 39  1  0
 20 40  1  0
 21 41  1  0
 23 42  1  0
M  END
>  <Energy>  (121) 
790.87976338781425

>  <compound_id>  (121) 
11170

>  <target_id>  (121) 
1

>  <reference_id>  (121) 
2

>  <inspiration_ids>  (121) 
[2, 66]

>  <energy_score>  (121) 
747.4862242302985

>  <distance_score>  (121) 
14.322933729927525

>  <path>  (121) 
/opt/xchem-fragalysis-2/maxwin/BulkDock/SCRATCH/511014/C11170-P2/C11170-P2.minimised.mol

>  <scratch_subdir>  (121) 
/opt/xchem-fragalysis-2/maxwin/BulkDock/SCRATCH/511014/C11170-P2

>  <fragmenstein_runtime>  (121) 
17.526888132095337

>  <fragmenstein_outcome>  (121) 
too moved

>  <fragmenstein_mode>  (121) 
expansion

>  <fragmenstein_error>  (121) 


$$$$
C11170-P66
     RDKit          3D

 42 44  0  0  0  0  0  0  0  0999 V2000
    1.3218  -13.8604   16.2706 C   0  0  0  0  0  0  0  0  0  0  0  0
    1.2788  -13.0369   14.2761 C   0  0  0  0  0  0  0  0  0  0  0  0
   -0.1658  -14.1744   13.8774 N   0  0  0  0  0  0  0  0  0  0  0  0
   -1.6778  -14.6638   15.0505 C   0  0  0  0  0  0  0  0  0  0  0  0
   -1.9381  -14.2190   16.1790 O   0  0  0  0  0  0  0  0  0  0  0  0
   -3.0136  -15.7988   14.5240 C   0  0  0  0  0  0  0  0  0  0  0  0
   -3.8152  -14.8823   13.0499 C   0  0  0  0  0  0  0  0  0  0  0  0
   -5.2687  -15.1232   12.6690 C   0  0  0  0  0  0  0  0  0  0  0  0
   -5.7226  -16.3935   13.1569 C   0  0  0  0  0  0  0  0  0  0  0  0
   -6.2653  -17.4843   12.1834 N   0  0  0  0  0  0  0  0  0  0  0  0
   -6.0703  -18.5850   12.6684 C   0  0  0  0  0  0  0  0  0  0  0  0
   -6.2005  -19.7946   12.2682 N   0  0  0  0  0  0  0  0  0  0  0  0
   -5.6101  -18.3821   13.8381 O   0  0  0  0  0  0  0  0  0  0  0  0
   -5.0799  -16.9060   14.1711 C   0  0  0  0  0  0  0  0  0  0  0  0
   -3.8748  -16.6769   15.1058 C   0  0  0  0  0  0  0  0  0  0  0  0
   -0.0257  -12.9308   12.6211 C   0  0  0  0  0  0  0  0  0  0  0  0
   -0.0641  -14.0330   11.5395 C   0  0  0  0  0  0  0  0  0  0  0  0
    1.0828  -11.7317   11.6164 C   0  0  0  0  0  0  0  0  0  0  0  0
    2.7700  -11.5441   10.9167 C   0  0  0  0  0  0  0  0  0  0  0  0
    3.7035  -10.3837   11.0298 C   0  0  0  0  0  0  0  0  0  0  0  0
    5.0098  -10.5052   10.5953 C   0  0  0  0  0  0  0  0  0  0  0  0
    5.2442  -12.0117    9.9069 S   0  0  0  0  0  0  0  0  0  0  0  0
    3.5956  -12.4358   10.2165 C   0  0  0  0  0  0  0  0  0  0  0  0
    0.6987  -13.5163   17.1086 H   0  0  0  0  0  0  0  0  0  0  0  0
    2.0025  -14.6371   16.6712 H   0  0  0  0  0  0  0  0  0  0  0  0
    0.6395  -14.6545   16.1130 H   0  0  0  0  0  0  0  0  0  0  0  0
    1.9843  -12.7316   15.0354 H   0  0  0  0  0  0  0  0  0  0  0  0
    0.9061  -12.0900   14.1624 H   0  0  0  0  0  0  0  0  0  0  0  0
   -3.6138  -13.8779   12.9682 H   0  0  0  0  0  0  0  0  0  0  0  0
   -5.6329  -15.0745   11.6601 H   0  0  0  0  0  0  0  0  0  0  0  0
   -5.3555  -20.3538   12.1755 H   0  0  0  0  0  0  0  0  0  0  0  0
   -6.5323  -19.8814   11.3105 H   0  0  0  0  0  0  0  0  0  0  0  0
   -3.8053  -17.1409   16.0720 H   0  0  0  0  0  0  0  0  0  0  0  0
   -0.6617  -12.1414   12.9266 H   0  0  0  0  0  0  0  0  0  0  0  0
   -0.0278  -13.6040   10.5790 H   0  0  0  0  0  0  0  0  0  0  0  0
   -0.9243  -14.6935   11.4874 H   0  0  0  0  0  0  0  0  0  0  0  0
    0.7709  -14.7196   11.6425 H   0  0  0  0  0  0  0  0  0  0  0  0
    0.4236  -11.6667   10.7781 H   0  0  0  0  0  0  0  0  0  0  0  0
    0.8535  -10.7458   11.9505 H   0  0  0  0  0  0  0  0  0  0  0  0
    3.5102   -9.4240   11.4442 H   0  0  0  0  0  0  0  0  0  0  0  0
    5.7931   -9.7612   10.6462 H   0  0  0  0  0  0  0  0  0  0  0  0
    3.4234  -13.4364    9.8878 H   0  0  0  0  0  0  0  0  0  0  0  0
  1  2  1  0
  2  3  1  0
  3  4  1  0
  4  5  2  0
  4  6  1  0
  6  7  2  0
  7  8  1  0
  8  9  2  0
  9 10  1  0
 10 11  2  0
 11 12  1  0
 11 13  1  0
 13 14  1  0
 14 15  2  0
  3 16  1  0
 16 17  1  0
 16 18  1  0
 18 19  1  0
 19 20  1  0
 20 21  2  0
 21 22  1  0
 22 23  1  0
 15  6  1  0
 23 19  2  0
 14  9  1  0
  1 24  1  0
  1 25  1  0
  1 26  1  0
  2 27  1  0
  2 28  1  0
  7 29  1  0
  8 30  1  0
 12 31  1  0
 12 32  1  0
 15 33  1  0
 16 34  1  0
 17 35  1  0
 17 36  1  0
 17 37  1  0
 18 38  1  0
 18 39  1  0
 20 40  1  0
 21 41  1  0
 23 42  1  0
M  END
>  <Energy>  (122) 
821.47607755903755

>  <compound_id>  (122) 
11170

>  <target_id>  (122) 
1

>  <reference_id>  (122) 
66

>  <inspiration_ids>  (122) 
[2, 66]

>  <energy_score>  (122) 
778.0825384015138

>  <distance_score>  (122) 
11.617890933095774

>  <path>  (122) 
/opt/xchem-fragalysis-2/maxwin/BulkDock/SCRATCH/511014/C11170-P66/C11170-P66.minimised.mol

>  <scratch_subdir>  (122) 
/opt/xchem-fragalysis-2/maxwin/BulkDock/SCRATCH/511014/C11170-P66

>  <fragmenstein_runtime>  (122) 
18.672994136810303

>  <fragmenstein_outcome>  (122) 
too moved

>  <fragmenstein_mode>  (122) 
expansion

>  <fragmenstein_error>  (122) 


$$$$
C11171-P2
     RDKit          3D

 34 36  0  0  0  0  0  0  0  0999 V2000
   -1.2264   -8.4874    8.2456 O   0  0  0  0  0  0  0  0  0  0  0  0
   -1.1392   -9.3910    9.0966 C   0  0  0  0  0  0  0  0  0  0  0  0
    0.5801   -9.1688   10.1362 C   0  0  0  0  0  0  0  0  0  0  0  0
    1.0868   -7.5835   11.0455 N   0  0  0  0  0  0  0  0  0  0  0  0
    2.5175   -7.0182   11.4559 C   0  0  0  0  0  0  0  0  0  0  0  0
    3.5531   -7.5525   11.3310 O   0  0  0  0  0  0  0  0  0  0  0  0
    2.7730   -5.3647   12.0536 C   0  0  0  0  0  0  0  0  0  0  0  0
    2.2332   -4.5397   13.1592 C   0  0  0  0  0  0  0  0  0  0  0  0
    2.8575   -3.3251   13.3535 C   0  0  0  0  0  0  0  0  0  0  0  0
    4.1377   -3.1045   12.2747 S   0  0  0  0  0  0  0  0  0  0  0  0
    3.9488   -4.6946   11.6711 C   0  0  0  0  0  0  0  0  0  0  0  0
   -2.4362  -10.7188    9.0700 O   0  0  0  0  0  0  0  0  0  0  0  0
   -3.8780  -11.4660    7.8934 C   0  0  0  0  0  0  0  0  0  0  0  0
   -5.0851  -12.9658    7.8420 C   0  0  0  0  0  0  0  0  0  0  0  0
   -6.2398  -13.3532    7.1332 N   0  0  0  0  0  0  0  0  0  0  0  0
   -6.9955  -14.5456    7.9444 C   0  0  0  0  0  0  0  0  0  0  0  0
   -7.5765  -16.3647    7.7731 C   0  0  0  0  0  0  0  0  0  0  0  0
   -7.4816  -17.7002    7.8749 C   0  0  0  0  0  0  0  0  0  0  0  0
   -8.4968  -18.5998    7.9240 F   0  0  0  0  0  0  0  0  0  0  0  0
   -6.4785  -17.5292    8.6490 C   0  0  0  0  0  0  0  0  0  0  0  0
   -6.5602  -15.8462    9.4060 C   0  0  0  0  0  0  0  0  0  0  0  0
   -6.1581  -14.5573    8.9986 C   0  0  0  0  0  0  0  0  0  0  0  0
   -4.9491  -13.9590    8.8028 O   0  0  0  0  0  0  0  0  0  0  0  0
    0.6244   -8.4069    9.3456 H   0  0  0  0  0  0  0  0  0  0  0  0
    1.3338   -9.9023   10.3298 H   0  0  0  0  0  0  0  0  0  0  0  0
    0.3943   -6.9552   11.3445 H   0  0  0  0  0  0  0  0  0  0  0  0
    1.4203   -4.8199   13.8164 H   0  0  0  0  0  0  0  0  0  0  0  0
    2.6116   -2.5638   14.0809 H   0  0  0  0  0  0  0  0  0  0  0  0
    4.7235   -5.0523   11.0098 H   0  0  0  0  0  0  0  0  0  0  0  0
   -3.7552  -11.1271    6.8433 H   0  0  0  0  0  0  0  0  0  0  0  0
   -4.7921  -10.8247    8.0125 H   0  0  0  0  0  0  0  0  0  0  0  0
   -8.3162  -16.8803    8.5073 H   0  0  0  0  0  0  0  0  0  0  0  0
   -6.4146  -18.4088    9.2789 H   0  0  0  0  0  0  0  0  0  0  0  0
   -7.6037  -15.8825    9.3851 H   0  0  0  0  0  0  0  0  0  0  0  0
  1  2  2  0
  2  3  1  0
  3  4  1  0
  4  5  1  0
  5  6  2  0
  5  7  1  0
  7  8  1  0
  8  9  2  0
  9 10  1  0
 10 11  1  0
  2 12  1  0
 12 13  1  0
 13 14  1  0
 14 15  2  0
 15 16  1  0
 16 17  2  0
 17 18  1  0
 18 19  1  0
 18 20  2  0
 20 21  1  0
 21 22  2  0
 22 23  1  0
 11  7  2  0
 23 14  1  0
 22 16  1  0
  3 24  1  0
  3 25  1  0
  4 26  1  0
  8 27  1  0
  9 28  1  0
 11 29  1  0
 13 30  1  0
 13 31  1  0
 17 32  1  0
 20 33  1  0
 21 34  1  0
M  END
>  <Energy>  (123) 
1020.7169906879516

>  <compound_id>  (123) 
11171

>  <target_id>  (123) 
1

>  <reference_id>  (123) 
2

>  <inspiration_ids>  (123) 
[2, 66]

>  <energy_score>  (123) 
950.5313933242638

>  <distance_score>  (123) 
9.601631049052747

>  <path>  (123) 
/opt/xchem-fragalysis-2/maxwin/BulkDock/SCRATCH/511014/C11171-P2/C11171-P2.minimised.mol

>  <scratch_subdir>  (123) 
/opt/xchem-fragalysis-2/maxwin/BulkDock/SCRATCH/511014/C11171-P2

>  <fragmenstein_runtime>  (123) 
11.283238410949707

>  <fragmenstein_outcome>  (123) 
too moved

>  <fragmenstein_mode>  (123) 
expansion

>  <fragmenstein_error>  (123) 


$$$$
C11171-P66
     RDKit          3D

 34 36  0  0  0  0  0  0  0  0999 V2000
   -0.3091  -11.4436   10.8314 O   0  0  0  0  0  0  0  0  0  0  0  0
    0.2520  -12.2842   11.4677 C   0  0  0  0  0  0  0  0  0  0  0  0
    1.8560  -11.2875   12.6276 C   0  0  0  0  0  0  0  0  0  0  0  0
    3.8236  -10.9510   13.4722 N   0  0  0  0  0  0  0  0  0  0  0  0
    4.6192   -9.7681   13.6822 C   0  0  0  0  0  0  0  0  0  0  0  0
    4.3508   -8.5894   13.5331 O   0  0  0  0  0  0  0  0  0  0  0  0
    6.3388  -10.6159   14.1211 C   0  0  0  0  0  0  0  0  0  0  0  0
    8.2600  -10.7128   14.4212 C   0  0  0  0  0  0  0  0  0  0  0  0
    8.8458   -9.5807   15.4905 C   0  0  0  0  0  0  0  0  0  0  0  0
    7.1092   -7.9942   14.7587 S   0  0  0  0  0  0  0  0  0  0  0  0
    7.7412  -10.1796   15.2141 C   0  0  0  0  0  0  0  0  0  0  0  0
   -0.6303  -13.9940   11.0795 O   0  0  0  0  0  0  0  0  0  0  0  0
   -2.2365  -15.0035   10.1053 C   0  0  0  0  0  0  0  0  0  0  0  0
   -3.9860  -15.4830    8.8830 C   0  0  0  0  0  0  0  0  0  0  0  0
   -4.4828  -16.8120    8.1131 N   0  0  0  0  0  0  0  0  0  0  0  0
   -6.3758  -17.3405    8.1503 C   0  0  0  0  0  0  0  0  0  0  0  0
   -7.6542  -18.0040    7.7037 C   0  0  0  0  0  0  0  0  0  0  0  0
   -8.6989  -19.4251    7.8986 C   0  0  0  0  0  0  0  0  0  0  0  0
   -9.3017  -20.0169    6.8517 F   0  0  0  0  0  0  0  0  0  0  0  0
   -8.4881  -20.1071    9.0275 C   0  0  0  0  0  0  0  0  0  0  0  0
   -7.2806  -19.3254    9.5693 C   0  0  0  0  0  0  0  0  0  0  0  0
   -6.0979  -17.9664    9.2222 C   0  0  0  0  0  0  0  0  0  0  0  0
   -5.9157  -15.9554    9.0768 O   0  0  0  0  0  0  0  0  0  0  0  0
    1.4637  -11.9022   13.4964 H   0  0  0  0  0  0  0  0  0  0  0  0
    2.3463  -11.2637   11.6185 H   0  0  0  0  0  0  0  0  0  0  0  0
    4.3697  -11.7723   13.7956 H   0  0  0  0  0  0  0  0  0  0  0  0
    8.8758  -11.6094   14.1357 H   0  0  0  0  0  0  0  0  0  0  0  0
    9.8646   -9.2449   15.5731 H   0  0  0  0  0  0  0  0  0  0  0  0
    7.7226  -10.4658   16.4590 H   0  0  0  0  0  0  0  0  0  0  0  0
   -1.5714  -15.7825    9.7063 H   0  0  0  0  0  0  0  0  0  0  0  0
   -2.6116  -15.3631   11.0420 H   0  0  0  0  0  0  0  0  0  0  0  0
   -8.2396  -17.4481    8.3839 H   0  0  0  0  0  0  0  0  0  0  0  0
   -8.9643  -20.9490    9.4758 H   0  0  0  0  0  0  0  0  0  0  0  0
   -7.0537  -19.4310    8.5332 H   0  0  0  0  0  0  0  0  0  0  0  0
  1  2  2  0
  2  3  1  0
  3  4  1  0
  4  5  1  0
  5  6  2  0
  5  7  1  0
  7  8  1  0
  8  9  2  0
  9 10  1  0
 10 11  1  0
  2 12  1  0
 12 13  1  0
 13 14  1  0
 14 15  2  0
 15 16  1  0
 16 17  2  0
 17 18  1  0
 18 19  1  0
 18 20  2  0
 20 21  1  0
 21 22  2  0
 22 23  1  0
 11  7  2  0
 23 14  1  0
 22 16  1  0
  3 24  1  0
  3 25  1  0
  4 26  1  0
  8 27  1  0
  9 28  1  0
 11 29  1  0
 13 30  1  0
 13 31  1  0
 17 32  1  0
 20 33  1  0
 21 34  1  0
M  END
>  <Energy>  (124) 
2477.0823930154997

>  <compound_id>  (124) 
11171

>  <target_id>  (124) 
1

>  <reference_id>  (124) 
66

>  <inspiration_ids>  (124) 
[2, 66]

>  <energy_score>  (124) 
2406.8967956518472

>  <distance_score>  (124) 
8.322309923210605

>  <path>  (124) 
/opt/xchem-fragalysis-2/maxwin/BulkDock/SCRATCH/511014/C11171-P66/C11171-P66.minimised.mol

>  <scratch_subdir>  (124) 
/opt/xchem-fragalysis-2/maxwin/BulkDock/SCRATCH/511014/C11171-P66

>  <fragmenstein_runtime>  (124) 
14.794742822647095

>  <fragmenstein_outcome>  (124) 
too moved

>  <fragmenstein_mode>  (124) 
expansion

>  <fragmenstein_error>  (124) 


$$$$
C11172-P2
     RDKit          3D

 34 36  0  0  0  0  0  0  0  0999 V2000
    0.1550  -17.3438   10.6712 O   0  0  0  0  0  0  0  0  0  0  0  0
    0.2177  -17.6924    9.4950 C   0  0  0  0  0  0  0  0  0  0  0  0
    1.5836  -17.8949    8.7873 C   0  0  0  0  0  0  0  0  0  0  0  0
    2.8150  -17.5713    9.5718 N   0  0  0  0  0  0  0  0  0  0  0  0
    4.1319  -17.1468    9.1403 C   0  0  0  0  0  0  0  0  0  0  0  0
    4.5426  -16.8723    8.0516 O   0  0  0  0  0  0  0  0  0  0  0  0
    5.1490  -16.9423   10.2646 C   0  0  0  0  0  0  0  0  0  0  0  0
    5.1035  -17.3034   11.6649 C   0  0  0  0  0  0  0  0  0  0  0  0
    6.1380  -16.7726   12.4196 C   0  0  0  0  0  0  0  0  0  0  0  0
    7.2385  -15.8816   11.4750 S   0  0  0  0  0  0  0  0  0  0  0  0
    6.3552  -16.2594   10.0541 C   0  0  0  0  0  0  0  0  0  0  0  0
   -0.8995  -17.9392    8.6936 O   0  0  0  0  0  0  0  0  0  0  0  0
   -2.1417  -17.8632    9.4705 C   0  0  0  0  0  0  0  0  0  0  0  0
   -3.4800  -17.9627    8.7332 C   0  0  0  0  0  0  0  0  0  0  0  0
   -4.4609  -17.0823    8.2292 N   0  0  0  0  0  0  0  0  0  0  0  0
   -6.2144  -17.7122    8.4310 C   0  0  0  0  0  0  0  0  0  0  0  0
   -7.5974  -17.6699    8.0103 C   0  0  0  0  0  0  0  0  0  0  0  0
   -8.6755  -18.7902    7.9950 C   0  0  0  0  0  0  0  0  0  0  0  0
   -8.5183  -19.8996    8.7933 C   0  0  0  0  0  0  0  0  0  0  0  0
   -9.4520  -20.8439    8.9179 F   0  0  0  0  0  0  0  0  0  0  0  0
   -7.4384  -19.7730    9.6308 C   0  0  0  0  0  0  0  0  0  0  0  0
   -6.3055  -18.7295    9.1847 C   0  0  0  0  0  0  0  0  0  0  0  0
   -4.4409  -19.2748    9.0442 O   0  0  0  0  0  0  0  0  0  0  0  0
    1.6091  -17.2769    7.8850 H   0  0  0  0  0  0  0  0  0  0  0  0
    1.6692  -18.9493    8.5088 H   0  0  0  0  0  0  0  0  0  0  0  0
    2.8032  -17.6368   10.5826 H   0  0  0  0  0  0  0  0  0  0  0  0
    4.3102  -17.8800   12.1246 H   0  0  0  0  0  0  0  0  0  0  0  0
    6.2903  -16.8693   13.4859 H   0  0  0  0  0  0  0  0  0  0  0  0
    6.7609  -15.9111    9.1150 H   0  0  0  0  0  0  0  0  0  0  0  0
   -2.1365  -16.8937    9.9820 H   0  0  0  0  0  0  0  0  0  0  0  0
   -2.1071  -18.6716   10.2102 H   0  0  0  0  0  0  0  0  0  0  0  0
   -7.7019  -16.6662    7.8200 H   0  0  0  0  0  0  0  0  0  0  0  0
   -9.5846  -18.7566    7.4426 H   0  0  0  0  0  0  0  0  0  0  0  0
   -7.2335  -20.4662   10.4394 H   0  0  0  0  0  0  0  0  0  0  0  0
  1  2  2  0
  2  3  1  0
  3  4  1  0
  4  5  1  0
  5  6  2  0
  5  7  1  0
  7  8  1  0
  8  9  2  0
  9 10  1  0
 10 11  1  0
  2 12  1  0
 12 13  1  0
 13 14  1  0
 14 15  2  0
 15 16  1  0
 16 17  2  0
 17 18  1  0
 18 19  2  0
 19 20  1  0
 19 21  1  0
 21 22  2  0
 22 23  1  0
 11  7  2  0
 23 14  1  0
 22 16  1  0
  3 24  1  0
  3 25  1  0
  4 26  1  0
  8 27  1  0
  9 28  1  0
 11 29  1  0
 13 30  1  0
 13 31  1  0
 17 32  1  0
 18 33  1  0
 21 34  1  0
M  END
>  <Energy>  (125) 
305.30406544612799

>  <compound_id>  (125) 
11172

>  <target_id>  (125) 
1

>  <reference_id>  (125) 
2

>  <inspiration_ids>  (125) 
[2, 66]

>  <energy_score>  (125) 
246.73883515195402

>  <distance_score>  (125) 
12.033923923757175

>  <path>  (125) 
/opt/xchem-fragalysis-2/maxwin/BulkDock/SCRATCH/511014/C11172-P2/C11172-P2.minimised.mol

>  <scratch_subdir>  (125) 
/opt/xchem-fragalysis-2/maxwin/BulkDock/SCRATCH/511014/C11172-P2

>  <fragmenstein_runtime>  (125) 
19.331815719604492

>  <fragmenstein_outcome>  (125) 
too moved

>  <fragmenstein_mode>  (125) 
expansion

>  <fragmenstein_error>  (125) 


$$$$
C11172-P66
     RDKit          3D

 34 36  0  0  0  0  0  0  0  0999 V2000
    2.1505  -16.7741    8.9913 O   0  0  0  0  0  0  0  0  0  0  0  0
    2.4926  -17.9511    8.9667 C   0  0  0  0  0  0  0  0  0  0  0  0
    3.8471  -18.4924    9.4922 C   0  0  0  0  0  0  0  0  0  0  0  0
    4.8262  -17.5461   10.0574 N   0  0  0  0  0  0  0  0  0  0  0  0
    5.7877  -16.6931    9.4188 C   0  0  0  0  0  0  0  0  0  0  0  0
    5.9853  -16.4744    8.2620 O   0  0  0  0  0  0  0  0  0  0  0  0
    6.7416  -15.9805   10.3730 C   0  0  0  0  0  0  0  0  0  0  0  0
    7.8412  -15.1378    9.9099 C   0  0  0  0  0  0  0  0  0  0  0  0
    8.6009  -14.5739   10.9133 C   0  0  0  0  0  0  0  0  0  0  0  0
    8.0109  -14.9981   12.4522 S   0  0  0  0  0  0  0  0  0  0  0  0
    6.7632  -15.9678   11.7620 C   0  0  0  0  0  0  0  0  0  0  0  0
    1.7065  -18.9729    8.4698 O   0  0  0  0  0  0  0  0  0  0  0  0
    0.4023  -18.5479    7.9848 C   0  0  0  0  0  0  0  0  0  0  0  0
   -0.4167  -19.7161    7.4705 C   0  0  0  0  0  0  0  0  0  0  0  0
   -0.6083  -20.9189    7.9869 N   0  0  0  0  0  0  0  0  0  0  0  0
   -1.5388  -21.5110    7.1604 C   0  0  0  0  0  0  0  0  0  0  0  0
   -2.1642  -22.7684    7.2061 C   0  0  0  0  0  0  0  0  0  0  0  0
   -3.1016  -23.0897    6.2153 C   0  0  0  0  0  0  0  0  0  0  0  0
   -3.3824  -22.1843    5.1936 C   0  0  0  0  0  0  0  0  0  0  0  0
   -4.2917  -22.5154    4.2666 F   0  0  0  0  0  0  0  0  0  0  0  0
   -2.7612  -20.9373    5.1098 C   0  0  0  0  0  0  0  0  0  0  0  0
   -1.8608  -20.6475    6.1301 C   0  0  0  0  0  0  0  0  0  0  0  0
   -1.1631  -19.4865    6.3274 O   0  0  0  0  0  0  0  0  0  0  0  0
    3.6347  -19.2234   10.2781 H   0  0  0  0  0  0  0  0  0  0  0  0
    4.3446  -18.9848    8.6504 H   0  0  0  0  0  0  0  0  0  0  0  0
    4.9993  -17.5500   11.0505 H   0  0  0  0  0  0  0  0  0  0  0  0
    8.0435  -14.9633    8.8570 H   0  0  0  0  0  0  0  0  0  0  0  0
    9.4591  -13.9261   10.8018 H   0  0  0  0  0  0  0  0  0  0  0  0
    6.1016  -16.4699   12.4516 H   0  0  0  0  0  0  0  0  0  0  0  0
   -0.1477  -18.0768    8.8074 H   0  0  0  0  0  0  0  0  0  0  0  0
    0.5480  -17.8233    7.1755 H   0  0  0  0  0  0  0  0  0  0  0  0
   -1.9289  -23.4713    7.9980 H   0  0  0  0  0  0  0  0  0  0  0  0
   -3.6084  -24.0501    6.2368 H   0  0  0  0  0  0  0  0  0  0  0  0
   -2.9849  -20.2347    4.3194 H   0  0  0  0  0  0  0  0  0  0  0  0
  1  2  2  0
  2  3  1  0
  3  4  1  0
  4  5  1  0
  5  6  2  0
  5  7  1  0
  7  8  1  0
  8  9  2  0
  9 10  1  0
 10 11  1  0
  2 12  1  0
 12 13  1  0
 13 14  1  0
 14 15  2  0
 15 16  1  0
 16 17  2  0
 17 18  1  0
 18 19  2  0
 19 20  1  0
 19 21  1  0
 21 22  2  0
 22 23  1  0
 11  7  2  0
 23 14  1  0
 22 16  1  0
  3 24  1  0
  3 25  1  0
  4 26  1  0
  8 27  1  0
  9 28  1  0
 11 29  1  0
 13 30  1  0
 13 31  1  0
 17 32  1  0
 18 33  1  0
 21 34  1  0
M  END
>  <Energy>  (126) 
34.610620998351173

>  <compound_id>  (126) 
11172

>  <target_id>  (126) 
1

>  <reference_id>  (126) 
66

>  <inspiration_ids>  (126) 
[2, 66]

>  <energy_score>  (126) 
-23.95460929580912

>  <distance_score>  (126) 
12.140325427290087

>  <path>  (126) 
/opt/xchem-fragalysis-2/maxwin/BulkDock/SCRATCH/511014/C11172-P66/C11172-P66.minimised.mol

>  <scratch_subdir>  (126) 
/opt/xchem-fragalysis-2/maxwin/BulkDock/SCRATCH/511014/C11172-P66

>  <fragmenstein_runtime>  (126) 
16.826115131378174

>  <fragmenstein_outcome>  (126) 
too moved

>  <fragmenstein_mode>  (126) 
expansion

>  <fragmenstein_error>  (126) 


$$$$
C11173-P2
     RDKit          3D

 38 41  0  0  0  0  0  0  0  0999 V2000
    3.9526  -20.1983    6.4256 O   0  0  0  0  0  0  0  0  0  0  0  0
    3.3353  -19.2668    6.8668 C   0  0  0  0  0  0  0  0  0  0  0  0
    4.1437  -18.2168    7.5625 C   0  0  0  0  0  0  0  0  0  0  0  0
    5.5618  -17.9933    7.3312 C   0  0  0  0  0  0  0  0  0  0  0  0
    6.1462  -17.1152    8.2135 C   0  0  0  0  0  0  0  0  0  0  0  0
    4.9974  -16.5326    9.3173 S   0  0  0  0  0  0  0  0  0  0  0  0
    3.7156  -17.3888    8.5879 C   0  0  0  0  0  0  0  0  0  0  0  0
    1.9215  -19.0299    6.9235 N   0  0  0  0  0  0  0  0  0  0  0  0
    0.7515  -19.9246    6.5501 C   0  0  0  0  0  0  0  0  0  0  0  0
   -0.6896  -19.4442    6.8194 C   0  0  0  0  0  0  0  0  0  0  0  0
   -1.0603  -18.3537    5.8321 C   0  0  0  0  0  0  0  0  0  0  0  0
   -2.3323  -17.6077    6.1795 C   0  0  0  0  0  0  0  0  0  0  0  0
   -2.8961  -17.3214    7.4297 N   0  0  0  0  0  0  0  0  0  0  0  0
   -4.4186  -16.6361    7.3961 C   0  0  0  0  0  0  0  0  0  0  0  0
   -6.1416  -17.7143    7.7338 C   0  0  0  0  0  0  0  0  0  0  0  0
   -7.0752  -18.3780    6.0671 C   0  0  0  0  0  0  0  0  0  0  0  0
   -6.5137  -18.2511    4.2482 C   0  0  0  0  0  0  0  0  0  0  0  0
   -5.6038  -16.6134    4.1045 C   0  0  0  0  0  0  0  0  0  0  0  0
   -4.5538  -15.8914    5.5055 C   0  0  0  0  0  0  0  0  0  0  0  0
   -3.1249  -16.9550    4.8755 O   0  0  0  0  0  0  0  0  0  0  0  0
    0.1785  -17.4602    5.7869 C   0  0  0  0  0  0  0  0  0  0  0  0
    1.4681  -18.2858    5.6817 C   0  0  0  0  0  0  0  0  0  0  0  0
    6.1230  -18.5216    6.5678 H   0  0  0  0  0  0  0  0  0  0  0  0
    7.1819  -16.8041    8.2509 H   0  0  0  0  0  0  0  0  0  0  0  0
    2.7194  -17.3326    9.0082 H   0  0  0  0  0  0  0  0  0  0  0  0
    0.8758  -20.4621    5.5938 H   0  0  0  0  0  0  0  0  0  0  0  0
    0.8941  -20.7525    7.2633 H   0  0  0  0  0  0  0  0  0  0  0  0
   -0.7608  -19.0808    7.8454 H   0  0  0  0  0  0  0  0  0  0  0  0
   -1.3874  -20.2855    6.7312 H   0  0  0  0  0  0  0  0  0  0  0  0
   -1.2021  -18.8081    4.8428 H   0  0  0  0  0  0  0  0  0  0  0  0
   -6.3954  -18.0553    8.7309 H   0  0  0  0  0  0  0  0  0  0  0  0
   -8.1235  -18.8039    6.1702 H   0  0  0  0  0  0  0  0  0  0  0  0
   -7.1064  -18.6331    3.4171 H   0  0  0  0  0  0  0  0  0  0  0  0
   -5.2276  -16.3194    3.1184 H   0  0  0  0  0  0  0  0  0  0  0  0
    0.1228  -16.7875    4.9261 H   0  0  0  0  0  0  0  0  0  0  0  0
    0.2575  -16.8456    6.6919 H   0  0  0  0  0  0  0  0  0  0  0  0
    1.5671  -18.8557    4.7409 H   0  0  0  0  0  0  0  0  0  0  0  0
    2.2499  -17.5216    5.5437 H   0  0  0  0  0  0  0  0  0  0  0  0
  1  2  2  0
  2  3  1  0
  3  4  1  0
  4  5  2  0
  5  6  1  0
  6  7  1  0
  2  8  1  0
  8  9  1  0
  9 10  1  0
 10 11  1  0
 11 12  1  0
 12 13  2  0
 13 14  1  0
 14 15  2  0
 15 16  1  0
 16 17  2  0
 17 18  1  0
 18 19  2  0
 19 20  1  0
 11 21  1  0
 21 22  1  0
  7  3  2  0
 22  8  1  0
 20 12  1  0
 19 14  1  0
  4 23  1  0
  5 24  1  0
  7 25  1  0
  9 26  1  0
  9 27  1  0
 10 28  1  0
 10 29  1  0
 11 30  1  0
 15 31  1  0
 16 32  1  0
 17 33  1  0
 18 34  1  0
 21 35  1  0
 21 36  1  0
 22 37  1  0
 22 38  1  0
M  END
>  <Energy>  (127) 
866.85890533768861

>  <compound_id>  (127) 
11173

>  <target_id>  (127) 
1

>  <reference_id>  (127) 
2

>  <inspiration_ids>  (127) 
[2, 66]

>  <energy_score>  (127) 
809.7448726085906

>  <distance_score>  (127) 
14.066127617655535

>  <path>  (127) 
/opt/xchem-fragalysis-2/maxwin/BulkDock/SCRATCH/511014/C11173-P2/C11173-P2.minimised.mol

>  <scratch_subdir>  (127) 
/opt/xchem-fragalysis-2/maxwin/BulkDock/SCRATCH/511014/C11173-P2

>  <fragmenstein_runtime>  (127) 
21.649303436279297

>  <fragmenstein_outcome>  (127) 
too moved

>  <fragmenstein_mode>  (127) 
expansion

>  <fragmenstein_error>  (127) 


$$$$
C11173-P66
     RDKit          3D

 38 41  0  0  0  0  0  0  0  0999 V2000
    4.7183  -12.4955   14.1799 O   0  0  0  0  0  0  0  0  0  0  0  0
    5.3730  -12.4005   13.1806 C   0  0  0  0  0  0  0  0  0  0  0  0
    6.9371  -12.3268   13.6136 C   0  0  0  0  0  0  0  0  0  0  0  0
    8.2949  -10.9750   14.3631 C   0  0  0  0  0  0  0  0  0  0  0  0
    9.1375  -11.2993   15.5669 C   0  0  0  0  0  0  0  0  0  0  0  0
    9.2355  -13.0580   15.9049 S   0  0  0  0  0  0  0  0  0  0  0  0
    7.5545  -13.5931   14.8181 C   0  0  0  0  0  0  0  0  0  0  0  0
    4.5216  -12.5063   11.3211 N   0  0  0  0  0  0  0  0  0  0  0  0
    2.7366  -12.5956   10.8247 C   0  0  0  0  0  0  0  0  0  0  0  0
    1.1696  -13.7588   11.0716 C   0  0  0  0  0  0  0  0  0  0  0  0
    1.5499  -15.3123   10.1888 C   0  0  0  0  0  0  0  0  0  0  0  0
    1.2126  -16.7008   10.7086 C   0  0  0  0  0  0  0  0  0  0  0  0
    2.0923  -17.6358   11.0110 N   0  0  0  0  0  0  0  0  0  0  0  0
    1.3411  -18.7047   11.3841 C   0  0  0  0  0  0  0  0  0  0  0  0
    1.7114  -19.8867   12.0330 C   0  0  0  0  0  0  0  0  0  0  0  0
    0.7033  -20.7220   12.5107 C   0  0  0  0  0  0  0  0  0  0  0  0
   -0.6265  -20.4241   12.2527 C   0  0  0  0  0  0  0  0  0  0  0  0
   -0.9944  -19.3524   11.4244 C   0  0  0  0  0  0  0  0  0  0  0  0
    0.0144  -18.4638   11.0967 C   0  0  0  0  0  0  0  0  0  0  0  0
   -0.0848  -17.1823   10.5992 O   0  0  0  0  0  0  0  0  0  0  0  0
    3.1130  -15.1526    9.5921 C   0  0  0  0  0  0  0  0  0  0  0  0
    4.2632  -13.8886   10.2724 C   0  0  0  0  0  0  0  0  0  0  0  0
    9.2131  -10.8595   13.7966 H   0  0  0  0  0  0  0  0  0  0  0  0
    9.9200  -10.6714   15.9705 H   0  0  0  0  0  0  0  0  0  0  0  0
    7.5016  -14.6295   15.0254 H   0  0  0  0  0  0  0  0  0  0  0  0
    2.8820  -12.3314    9.7779 H   0  0  0  0  0  0  0  0  0  0  0  0
    2.3637  -11.6095   11.1750 H   0  0  0  0  0  0  0  0  0  0  0  0
    0.2376  -13.2674   10.8027 H   0  0  0  0  0  0  0  0  0  0  0  0
    0.9962  -14.0239   12.1300 H   0  0  0  0  0  0  0  0  0  0  0  0
    1.0031  -15.4409    9.3007 H   0  0  0  0  0  0  0  0  0  0  0  0
    2.7538  -20.0763   12.2649 H   0  0  0  0  0  0  0  0  0  0  0  0
    0.9617  -21.5901   13.1125 H   0  0  0  0  0  0  0  0  0  0  0  0
   -1.3838  -21.0492   12.7185 H   0  0  0  0  0  0  0  0  0  0  0  0
   -2.0227  -19.1665   11.1632 H   0  0  0  0  0  0  0  0  0  0  0  0
    3.6371  -16.1210    9.6517 H   0  0  0  0  0  0  0  0  0  0  0  0
    3.0446  -15.0270    8.5209 H   0  0  0  0  0  0  0  0  0  0  0  0
    4.4165  -13.3597    9.3229 H   0  0  0  0  0  0  0  0  0  0  0  0
    5.2568  -14.3835   10.2984 H   0  0  0  0  0  0  0  0  0  0  0  0
  1  2  2  0
  2  3  1  0
  3  4  1  0
  4  5  2  0
  5  6  1  0
  6  7  1  0
  2  8  1  0
  8  9  1  0
  9 10  1  0
 10 11  1  0
 11 12  1  0
 12 13  2  0
 13 14  1  0
 14 15  2  0
 15 16  1  0
 16 17  2  0
 17 18  1  0
 18 19  2  0
 19 20  1  0
 11 21  1  0
 21 22  1  0
  7  3  2  0
 22  8  1  0
 20 12  1  0
 19 14  1  0
  4 23  1  0
  5 24  1  0
  7 25  1  0
  9 26  1  0
  9 27  1  0
 10 28  1  0
 10 29  1  0
 11 30  1  0
 15 31  1  0
 16 32  1  0
 17 33  1  0
 18 34  1  0
 21 35  1  0
 21 36  1  0
 22 37  1  0
 22 38  1  0
M  END
>  <Energy>  (128) 
775.16302165419597

>  <compound_id>  (128) 
11173

>  <target_id>  (128) 
1

>  <reference_id>  (128) 
66

>  <inspiration_ids>  (128) 
[2, 66]

>  <energy_score>  (128) 
718.0489889251005

>  <distance_score>  (128) 
11.7022943107275

>  <path>  (128) 
/opt/xchem-fragalysis-2/maxwin/BulkDock/SCRATCH/511014/C11173-P66/C11173-P66.minimised.mol

>  <scratch_subdir>  (128) 
/opt/xchem-fragalysis-2/maxwin/BulkDock/SCRATCH/511014/C11173-P66

>  <fragmenstein_runtime>  (128) 
16.784430742263794

>  <fragmenstein_outcome>  (128) 
too moved

>  <fragmenstein_mode>  (128) 
expansion

>  <fragmenstein_error>  (128) 


$$$$
C11174-P2
     RDKit          3D

 37 40  0  0  0  0  0  0  0  0999 V2000
    2.1396  -18.8778    5.0020 O   0  0  0  0  0  0  0  0  0  0  0  0
    1.6729  -18.3963    5.9985 C   0  0  0  0  0  0  0  0  0  0  0  0
    2.6480  -17.8023    6.9866 C   0  0  0  0  0  0  0  0  0  0  0  0
    4.0895  -17.7906    6.7968 C   0  0  0  0  0  0  0  0  0  0  0  0
    4.7967  -17.2011    7.8200 C   0  0  0  0  0  0  0  0  0  0  0  0
    3.7496  -16.5631    8.9924 S   0  0  0  0  0  0  0  0  0  0  0  0
    2.3580  -17.1008    8.1500 C   0  0  0  0  0  0  0  0  0  0  0  0
    0.3116  -18.1977    6.3818 N   0  0  0  0  0  0  0  0  0  0  0  0
   -0.2126  -19.4369    7.1776 C   0  0  0  0  0  0  0  0  0  0  0  0
   -0.3416  -20.8624    6.5188 C   0  0  0  0  0  0  0  0  0  0  0  0
   -1.2969  -20.8178    5.4214 N   0  0  0  0  0  0  0  0  0  0  0  0
   -2.4132  -21.5827    5.3331 C   0  0  0  0  0  0  0  0  0  0  0  0
   -3.4813  -21.3955    4.5744 N   0  0  0  0  0  0  0  0  0  0  0  0
   -4.3162  -22.4394    4.8930 C   0  0  0  0  0  0  0  0  0  0  0  0
   -5.6318  -22.7296    4.5001 C   0  0  0  0  0  0  0  0  0  0  0  0
   -6.2776  -23.8231    5.1009 C   0  0  0  0  0  0  0  0  0  0  0  0
   -5.6183  -24.6286    6.0385 C   0  0  0  0  0  0  0  0  0  0  0  0
   -4.2938  -24.3703    6.4157 C   0  0  0  0  0  0  0  0  0  0  0  0
   -3.7041  -23.2538    5.8305 C   0  0  0  0  0  0  0  0  0  0  0  0
   -2.4822  -22.7135    6.1114 O   0  0  0  0  0  0  0  0  0  0  0  0
   -1.1441  -19.6132    4.6390 C   0  0  0  0  0  0  0  0  0  0  0  0
   -0.9775  -18.4228    5.6136 C   0  0  0  0  0  0  0  0  0  0  0  0
    4.5708  -18.2399    5.9342 H   0  0  0  0  0  0  0  0  0  0  0  0
    5.8721  -17.1127    7.9063 H   0  0  0  0  0  0  0  0  0  0  0  0
    1.3804  -16.8985    8.5621 H   0  0  0  0  0  0  0  0  0  0  0  0
    0.5466  -19.5737    7.9618 H   0  0  0  0  0  0  0  0  0  0  0  0
   -1.1213  -19.1818    7.7458 H   0  0  0  0  0  0  0  0  0  0  0  0
   -0.6328  -21.5795    7.2947 H   0  0  0  0  0  0  0  0  0  0  0  0
    0.6354  -21.1746    6.1319 H   0  0  0  0  0  0  0  0  0  0  0  0
   -6.1407  -22.1030    3.7763 H   0  0  0  0  0  0  0  0  0  0  0  0
   -7.3040  -24.0550    4.8217 H   0  0  0  0  0  0  0  0  0  0  0  0
   -6.1412  -25.4778    6.4758 H   0  0  0  0  0  0  0  0  0  0  0  0
   -3.7674  -24.9709    7.1475 H   0  0  0  0  0  0  0  0  0  0  0  0
   -0.2648  -19.7014    3.9908 H   0  0  0  0  0  0  0  0  0  0  0  0
   -2.0063  -19.4243    3.9885 H   0  0  0  0  0  0  0  0  0  0  0  0
   -1.8760  -18.2221    6.2177 H   0  0  0  0  0  0  0  0  0  0  0  0
   -0.9541  -17.5587    4.9330 H   0  0  0  0  0  0  0  0  0  0  0  0
  1  2  2  0
  2  3  1  0
  3  4  1  0
  4  5  2  0
  5  6  1  0
  6  7  1  0
  2  8  1  0
  8  9  1  0
  9 10  1  0
 10 11  1  0
 11 12  1  0
 12 13  2  0
 13 14  1  0
 14 15  2  0
 15 16  1  0
 16 17  2  0
 17 18  1  0
 18 19  2  0
 19 20  1  0
 11 21  1  0
 21 22  1  0
  7  3  2  0
 22  8  1  0
 20 12  1  0
 19 14  1  0
  4 23  1  0
  5 24  1  0
  7 25  1  0
  9 26  1  0
  9 27  1  0
 10 28  1  0
 10 29  1  0
 15 30  1  0
 16 31  1  0
 17 32  1  0
 18 33  1  0
 21 34  1  0
 21 35  1  0
 22 36  1  0
 22 37  1  0
M  END
>  <Energy>  (129) 
94.796336619476833

>  <compound_id>  (129) 
11174

>  <target_id>  (129) 
1

>  <reference_id>  (129) 
2

>  <inspiration_ids>  (129) 
[2, 66]

>  <energy_score>  (129) 
22.743605351132487

>  <distance_score>  (129) 
14.01674174654483

>  <path>  (129) 
/opt/xchem-fragalysis-2/maxwin/BulkDock/SCRATCH/511014/C11174-P2/C11174-P2.minimised.mol

>  <scratch_subdir>  (129) 
/opt/xchem-fragalysis-2/maxwin/BulkDock/SCRATCH/511014/C11174-P2

>  <fragmenstein_runtime>  (129) 
19.747769594192505

>  <fragmenstein_outcome>  (129) 
too moved

>  <fragmenstein_mode>  (129) 
expansion

>  <fragmenstein_error>  (129) 


$$$$
C11174-P66
     RDKit          3D

 37 40  0  0  0  0  0  0  0  0999 V2000
    0.8797  -10.6409   11.7883 O   0  0  0  0  0  0  0  0  0  0  0  0
    1.7398  -11.4529   11.8899 C   0  0  0  0  0  0  0  0  0  0  0  0
    3.3892  -10.6625   12.8617 C   0  0  0  0  0  0  0  0  0  0  0  0
    4.2096   -9.0674   13.4778 C   0  0  0  0  0  0  0  0  0  0  0  0
    4.9184   -8.6900   14.6040 C   0  0  0  0  0  0  0  0  0  0  0  0
    4.4751   -9.9572   15.5210 S   0  0  0  0  0  0  0  0  0  0  0  0
    4.4932  -10.9762   13.9621 C   0  0  0  0  0  0  0  0  0  0  0  0
    1.1496  -13.1934   11.2466 N   0  0  0  0  0  0  0  0  0  0  0  0
    0.3569  -14.5741   12.0886 C   0  0  0  0  0  0  0  0  0  0  0  0
   -0.2155  -16.1490   10.8846 C   0  0  0  0  0  0  0  0  0  0  0  0
   -1.6427  -16.2343    9.6043 N   0  0  0  0  0  0  0  0  0  0  0  0
   -3.1357  -17.0612    8.9196 C   0  0  0  0  0  0  0  0  0  0  0  0
   -4.4470  -16.7393    8.1449 N   0  0  0  0  0  0  0  0  0  0  0  0
   -6.2517  -17.4728    8.3093 C   0  0  0  0  0  0  0  0  0  0  0  0
   -7.5937  -17.9781    7.8016 C   0  0  0  0  0  0  0  0  0  0  0  0
   -8.7091  -19.3772    7.9865 C   0  0  0  0  0  0  0  0  0  0  0  0
   -8.5385  -20.1555    9.1206 C   0  0  0  0  0  0  0  0  0  0  0  0
   -7.2947  -19.5159    9.7931 C   0  0  0  0  0  0  0  0  0  0  0  0
   -5.9899  -18.3512    9.2892 C   0  0  0  0  0  0  0  0  0  0  0  0
   -4.0710  -18.5430    9.1683 O   0  0  0  0  0  0  0  0  0  0  0  0
   -1.7501  -14.8642   10.2331 C   0  0  0  0  0  0  0  0  0  0  0  0
   -0.1981  -13.6688   10.5370 C   0  0  0  0  0  0  0  0  0  0  0  0
    4.0141   -8.2029   12.8477 H   0  0  0  0  0  0  0  0  0  0  0  0
    5.3101   -7.7243   14.8854 H   0  0  0  0  0  0  0  0  0  0  0  0
    5.0437  -11.8969   14.0747 H   0  0  0  0  0  0  0  0  0  0  0  0
    1.1444  -15.0305   12.6238 H   0  0  0  0  0  0  0  0  0  0  0  0
   -0.3234  -14.1854   12.8246 H   0  0  0  0  0  0  0  0  0  0  0  0
   -0.1676  -17.0912   11.4305 H   0  0  0  0  0  0  0  0  0  0  0  0
    0.6433  -16.2626   10.2001 H   0  0  0  0  0  0  0  0  0  0  0  0
   -8.0845  -17.2662    8.3871 H   0  0  0  0  0  0  0  0  0  0  0  0
   -9.3719  -19.7010    7.1903 H   0  0  0  0  0  0  0  0  0  0  0  0
   -9.1089  -20.9634    9.5245 H   0  0  0  0  0  0  0  0  0  0  0  0
   -7.2000  -19.4910    8.7309 H   0  0  0  0  0  0  0  0  0  0  0  0
   -2.4928  -14.4251    9.6001 H   0  0  0  0  0  0  0  0  0  0  0  0
   -2.2534  -14.9844   11.1791 H   0  0  0  0  0  0  0  0  0  0  0  0
    0.4154  -14.4164   10.0646 H   0  0  0  0  0  0  0  0  0  0  0  0
   -0.4464  -12.6400   10.3253 H   0  0  0  0  0  0  0  0  0  0  0  0
  1  2  2  0
  2  3  1  0
  3  4  1  0
  4  5  2  0
  5  6  1  0
  6  7  1  0
  2  8  1  0
  8  9  1  0
  9 10  1  0
 10 11  1  0
 11 12  1  0
 12 13  2  0
 13 14  1  0
 14 15  2  0
 15 16  1  0
 16 17  2  0
 17 18  1  0
 18 19  2  0
 19 20  1  0
 11 21  1  0
 21 22  1  0
  7  3  2  0
 22  8  1  0
 20 12  1  0
 19 14  1  0
  4 23  1  0
  5 24  1  0
  7 25  1  0
  9 26  1  0
  9 27  1  0
 10 28  1  0
 10 29  1  0
 15 30  1  0
 16 31  1  0
 17 32  1  0
 18 33  1  0
 21 34  1  0
 21 35  1  0
 22 36  1  0
 22 37  1  0
M  END
>  <Energy>  (130) 
1638.9030683495052

>  <compound_id>  (130) 
11174

>  <target_id>  (130) 
1

>  <reference_id>  (130) 
66

>  <inspiration_ids>  (130) 
[2, 66]

>  <energy_score>  (130) 
1566.8503370811736

>  <distance_score>  (130) 
9.5218989637586

>  <path>  (130) 
/opt/xchem-fragalysis-2/maxwin/BulkDock/SCRATCH/511014/C11174-P66/C11174-P66.minimised.mol

>  <scratch_subdir>  (130) 
/opt/xchem-fragalysis-2/maxwin/BulkDock/SCRATCH/511014/C11174-P66

>  <fragmenstein_runtime>  (130) 
14.5352144241333

>  <fragmenstein_outcome>  (130) 
too moved

>  <fragmenstein_mode>  (130) 
expansion

>  <fragmenstein_error>  (130) 


$$$$
C11175-P2
     RDKit          3D

 40 43  0  0  0  0  0  0  0  0999 V2000
   -0.7782  -12.2896   10.4285 O   0  0  0  0  0  0  0  0  0  0  0  0
   -0.2945  -13.2154   10.9896 C   0  0  0  0  0  0  0  0  0  0  0  0
    1.0113  -12.8660   11.3821 C   0  0  0  0  0  0  0  0  0  0  0  0
    0.7634  -11.4038   11.7892 C   0  0  0  0  0  0  0  0  0  0  0  0
    1.4729  -10.4476   11.1012 C   0  0  0  0  0  0  0  0  0  0  0  0
    2.9858  -10.9456   10.6045 S   0  0  0  0  0  0  0  0  0  0  0  0
    2.3691  -12.5112   10.6110 C   0  0  0  0  0  0  0  0  0  0  0  0
   -1.1540  -14.7582   11.0948 N   0  0  0  0  0  0  0  0  0  0  0  0
   -0.8633  -15.7451    9.9505 C   0  0  0  0  0  0  0  0  0  0  0  0
   -1.4980  -16.9544    8.5330 C   0  0  0  0  0  0  0  0  0  0  0  0
   -2.8761  -18.1119    8.5366 C   0  0  0  0  0  0  0  0  0  0  0  0
   -4.3385  -17.1888    8.3664 N   0  0  0  0  0  0  0  0  0  0  0  0
   -6.1064  -17.8269    8.6335 C   0  0  0  0  0  0  0  0  0  0  0  0
   -7.3668  -17.6395    8.0014 N   0  0  0  0  0  0  0  0  0  0  0  0
   -8.3826  -18.8803    8.1931 C   0  0  0  0  0  0  0  0  0  0  0  0
   -9.3537  -19.5418    7.4158 C   0  0  0  0  0  0  0  0  0  0  0  0
   -9.8537  -20.7926    7.8414 C   0  0  0  0  0  0  0  0  0  0  0  0
   -9.3799  -21.4102    8.9985 C   0  0  0  0  0  0  0  0  0  0  0  0
   -8.3246  -20.8480    9.7113 C   0  0  0  0  0  0  0  0  0  0  0  0
   -7.7974  -19.6663    9.1761 C   0  0  0  0  0  0  0  0  0  0  0  0
   -6.5894  -19.0206    9.4927 O   0  0  0  0  0  0  0  0  0  0  0  0
   -3.3586  -15.7769    8.9837 C   0  0  0  0  0  0  0  0  0  0  0  0
   -2.7116  -15.1841   10.6088 C   0  0  0  0  0  0  0  0  0  0  0  0
   -0.2288  -11.1490   12.1479 H   0  0  0  0  0  0  0  0  0  0  0  0
    1.1652   -9.4458   10.8729 H   0  0  0  0  0  0  0  0  0  0  0  0
    2.9935  -13.1259    9.9588 H   0  0  0  0  0  0  0  0  0  0  0  0
   -1.4543  -15.0664    9.4311 H   0  0  0  0  0  0  0  0  0  0  0  0
    0.2358  -15.7858    9.8854 H   0  0  0  0  0  0  0  0  0  0  0  0
   -0.6142  -17.4323    8.0702 H   0  0  0  0  0  0  0  0  0  0  0  0
   -1.8483  -16.3277    7.7906 H   0  0  0  0  0  0  0  0  0  0  0  0
   -2.6978  -18.6914    7.6327 H   0  0  0  0  0  0  0  0  0  0  0  0
   -2.9053  -18.7417    9.4234 H   0  0  0  0  0  0  0  0  0  0  0  0
   -9.6262  -19.1783    6.4327 H   0  0  0  0  0  0  0  0  0  0  0  0
  -10.5936  -21.3003    7.2259 H   0  0  0  0  0  0  0  0  0  0  0  0
   -9.7768  -22.3741    9.3072 H   0  0  0  0  0  0  0  0  0  0  0  0
   -7.8498  -21.3424   10.5503 H   0  0  0  0  0  0  0  0  0  0  0  0
   -4.1750  -15.0133    8.8345 H   0  0  0  0  0  0  0  0  0  0  0  0
   -3.0294  -16.5546    9.6210 H   0  0  0  0  0  0  0  0  0  0  0  0
   -2.9674  -14.3025   10.0957 H   0  0  0  0  0  0  0  0  0  0  0  0
   -3.2906  -15.0798   11.4956 H   0  0  0  0  0  0  0  0  0  0  0  0
  1  2  2  0
  2  3  1  0
  3  4  1  0
  4  5  2  0
  5  6  1  0
  6  7  1  0
  2  8  1  0
  8  9  1  0
  9 10  1  0
 10 11  1  0
 11 12  1  0
 12 13  1  0
 13 14  2  0
 14 15  1  0
 15 16  2  0
 16 17  1  0
 17 18  2  0
 18 19  1  0
 19 20  2  0
 20 21  1  0
 12 22  1  0
 22 23  1  0
  7  3  2  0
 23  8  1  0
 21 13  1  0
 20 15  1  0
  4 24  1  0
  5 25  1  0
  7 26  1  0
  9 27  1  0
  9 28  1  0
 10 29  1  0
 10 30  1  0
 11 31  1  0
 11 32  1  0
 16 33  1  0
 17 34  1  0
 18 35  1  0
 19 36  1  0
 22 37  1  0
 22 38  1  0
 23 39  1  0
 23 40  1  0
M  END
>  <Energy>  (131) 
831.51109821197406

>  <compound_id>  (131) 
11175

>  <target_id>  (131) 
1

>  <reference_id>  (131) 
2

>  <inspiration_ids>  (131) 
[2, 66]

>  <energy_score>  (131) 
772.6110173163866

>  <distance_score>  (131) 
11.004856669677812

>  <path>  (131) 
/opt/xchem-fragalysis-2/maxwin/BulkDock/SCRATCH/511014/C11175-P2/C11175-P2.minimised.mol

>  <scratch_subdir>  (131) 
/opt/xchem-fragalysis-2/maxwin/BulkDock/SCRATCH/511014/C11175-P2

>  <fragmenstein_runtime>  (131) 
15.968864917755127

>  <fragmenstein_outcome>  (131) 
too moved

>  <fragmenstein_mode>  (131) 
expansion

>  <fragmenstein_error>  (131) 


$$$$
C11175-P66
     RDKit          3D

 40 43  0  0  0  0  0  0  0  0999 V2000
    1.8304  -10.3733   10.8146 O   0  0  0  0  0  0  0  0  0  0  0  0
    2.3888  -11.2485   11.4482 C   0  0  0  0  0  0  0  0  0  0  0  0
    3.7581  -10.5018   12.7658 C   0  0  0  0  0  0  0  0  0  0  0  0
    5.0426  -10.9970   13.6942 C   0  0  0  0  0  0  0  0  0  0  0  0
    6.0239  -10.1342   14.2132 C   0  0  0  0  0  0  0  0  0  0  0  0
    5.8234   -8.0423   13.9591 S   0  0  0  0  0  0  0  0  0  0  0  0
    4.2086   -8.9166   13.3270 C   0  0  0  0  0  0  0  0  0  0  0  0
    1.8542  -13.0558   11.3059 N   0  0  0  0  0  0  0  0  0  0  0  0
    2.9127  -13.9683    9.8792 C   0  0  0  0  0  0  0  0  0  0  0  0
    1.9321  -15.6409    9.3340 C   0  0  0  0  0  0  0  0  0  0  0  0
    0.2877  -16.7512    9.1699 C   0  0  0  0  0  0  0  0  0  0  0  0
   -1.5012  -16.3320    9.2319 N   0  0  0  0  0  0  0  0  0  0  0  0
   -3.1264  -17.0742    8.8937 C   0  0  0  0  0  0  0  0  0  0  0  0
   -4.4683  -16.7405    8.1857 N   0  0  0  0  0  0  0  0  0  0  0  0
   -6.2503  -17.4967    8.3352 C   0  0  0  0  0  0  0  0  0  0  0  0
   -7.4990  -18.0207    7.8954 C   0  0  0  0  0  0  0  0  0  0  0  0
   -8.3765  -19.4218    8.1640 C   0  0  0  0  0  0  0  0  0  0  0  0
   -8.2155  -20.1010    9.3301 C   0  0  0  0  0  0  0  0  0  0  0  0
   -7.1095  -19.4355   10.0701 C   0  0  0  0  0  0  0  0  0  0  0  0
   -5.9603  -18.3650    9.2873 C   0  0  0  0  0  0  0  0  0  0  0  0
   -4.0417  -18.5522    9.1579 O   0  0  0  0  0  0  0  0  0  0  0  0
   -1.0142  -15.1706   10.5197 C   0  0  0  0  0  0  0  0  0  0  0  0
    0.4584  -13.8419   10.4609 C   0  0  0  0  0  0  0  0  0  0  0  0
    5.3340  -12.0373   13.7322 H   0  0  0  0  0  0  0  0  0  0  0  0
    6.9935  -10.1291   14.6672 H   0  0  0  0  0  0  0  0  0  0  0  0
    3.8936   -8.0691   12.7389 H   0  0  0  0  0  0  0  0  0  0  0  0
    3.2413  -13.1396    9.1832 H   0  0  0  0  0  0  0  0  0  0  0  0
    3.9813  -14.1352   10.0919 H   0  0  0  0  0  0  0  0  0  0  0  0
    2.2979  -15.7193    8.2962 H   0  0  0  0  0  0  0  0  0  0  0  0
    2.5430  -16.3786    9.8763 H   0  0  0  0  0  0  0  0  0  0  0  0
    0.3893  -17.2547    8.2017 H   0  0  0  0  0  0  0  0  0  0  0  0
    0.3866  -17.4877    9.9764 H   0  0  0  0  0  0  0  0  0  0  0  0
   -8.0882  -17.2951    8.3404 H   0  0  0  0  0  0  0  0  0  0  0  0
   -9.1992  -19.6862    7.5066 H   0  0  0  0  0  0  0  0  0  0  0  0
   -8.8462  -20.8698    9.7382 H   0  0  0  0  0  0  0  0  0  0  0  0
   -6.8832  -19.5640   11.1341 H   0  0  0  0  0  0  0  0  0  0  0  0
   -0.6153  -15.8838   11.2413 H   0  0  0  0  0  0  0  0  0  0  0  0
   -1.9568  -14.8222   10.9040 H   0  0  0  0  0  0  0  0  0  0  0  0
    0.7615  -14.5940   11.2100 H   0  0  0  0  0  0  0  0  0  0  0  0
   -0.1629  -13.0816   10.9488 H   0  0  0  0  0  0  0  0  0  0  0  0
  1  2  2  0
  2  3  1  0
  3  4  1  0
  4  5  2  0
  5  6  1  0
  6  7  1  0
  2  8  1  0
  8  9  1  0
  9 10  1  0
 10 11  1  0
 11 12  1  0
 12 13  1  0
 13 14  2  0
 14 15  1  0
 15 16  2  0
 16 17  1  0
 17 18  2  0
 18 19  1  0
 19 20  2  0
 20 21  1  0
 12 22  1  0
 22 23  1  0
  7  3  2  0
 23  8  1  0
 21 13  1  0
 20 15  1  0
  4 24  1  0
  5 25  1  0
  7 26  1  0
  9 27  1  0
  9 28  1  0
 10 29  1  0
 10 30  1  0
 11 31  1  0
 11 32  1  0
 16 33  1  0
 17 34  1  0
 18 35  1  0
 19 36  1  0
 22 37  1  0
 22 38  1  0
 23 39  1  0
 23 40  1  0
M  END
>  <Energy>  (132) 
1406.8239054924693

>  <compound_id>  (132) 
11175

>  <target_id>  (132) 
1

>  <reference_id>  (132) 
66

>  <inspiration_ids>  (132) 
[2, 66]

>  <energy_score>  (132) 
1347.923824596873

>  <distance_score>  (132) 
9.2065381290626

>  <path>  (132) 
/opt/xchem-fragalysis-2/maxwin/BulkDock/SCRATCH/511014/C11175-P66/C11175-P66.minimised.mol

>  <scratch_subdir>  (132) 
/opt/xchem-fragalysis-2/maxwin/BulkDock/SCRATCH/511014/C11175-P66

>  <fragmenstein_runtime>  (132) 
14.197264671325684

>  <fragmenstein_outcome>  (132) 
too moved

>  <fragmenstein_mode>  (132) 
expansion

>  <fragmenstein_error>  (132) 


$$$$
C11176-P2
     RDKit          3D

 45 47  0  0  0  0  0  0  0  0999 V2000
   -9.9461  -22.3021    7.4411 C   0  0  0  0  0  0  0  0  0  0  0  0
   -9.3127  -21.7157    8.6408 C   0  0  0  0  0  0  0  0  0  0  0  0
   -8.7672  -20.5216    8.7814 N   0  0  0  0  0  0  0  0  0  0  0  0
   -8.2770  -20.5361   10.0726 C   0  0  0  0  0  0  0  0  0  0  0  0
   -7.4323  -19.6102   10.8847 C   0  0  0  0  0  0  0  0  0  0  0  0
   -7.0472  -19.3034   12.2740 C   0  0  0  0  0  0  0  0  0  0  0  0
   -6.2774  -17.5583   12.3365 C   0  0  0  0  0  0  0  0  0  0  0  0
   -6.3865  -17.1093   11.3120 O   0  0  0  0  0  0  0  0  0  0  0  0
   -5.1802  -16.4042   13.4134 N   0  0  0  0  0  0  0  0  0  0  0  0
   -4.0491  -14.7010   12.9021 C   0  0  0  0  0  0  0  0  0  0  0  0
   -2.2818  -14.5632   11.6187 C   0  0  0  0  0  0  0  0  0  0  0  0
   -2.4546  -15.0422   10.1288 C   0  0  0  0  0  0  0  0  0  0  0  0
   -0.5558  -13.2581   11.6115 C   0  0  0  0  0  0  0  0  0  0  0  0
    0.0844  -11.3875   11.6380 N   0  0  0  0  0  0  0  0  0  0  0  0
    1.2487   -9.9048   11.0140 C   0  0  0  0  0  0  0  0  0  0  0  0
    1.7369   -7.9021   11.1981 C   0  0  0  0  0  0  0  0  0  0  0  0
    2.8356   -6.8397   11.7699 C   0  0  0  0  0  0  0  0  0  0  0  0
    2.9483   -5.4145   11.9035 C   0  0  0  0  0  0  0  0  0  0  0  0
    4.5652   -5.8656   11.6632 S   0  0  0  0  0  0  0  0  0  0  0  0
    3.4602   -7.7157   11.1207 C   0  0  0  0  0  0  0  0  0  0  0  0
   -7.0431  -20.7866   12.2683 C   0  0  0  0  0  0  0  0  0  0  0  0
   -7.8619  -22.0130   11.7594 C   0  0  0  0  0  0  0  0  0  0  0  0
   -8.5413  -21.7466   10.6296 C   0  0  0  0  0  0  0  0  0  0  0  0
   -9.2119  -22.5285    9.7460 O   0  0  0  0  0  0  0  0  0  0  0  0
   -9.3759  -23.1685    7.0934 H   0  0  0  0  0  0  0  0  0  0  0  0
  -10.9675  -22.6221    7.6669 H   0  0  0  0  0  0  0  0  0  0  0  0
   -9.9872  -21.5688    6.6303 H   0  0  0  0  0  0  0  0  0  0  0  0
   -6.9333  -19.0202   10.1250 H   0  0  0  0  0  0  0  0  0  0  0  0
   -5.0256  -16.8560   14.2840 H   0  0  0  0  0  0  0  0  0  0  0  0
   -4.0875  -14.9616   11.8691 H   0  0  0  0  0  0  0  0  0  0  0  0
   -4.8800  -14.0375   12.8520 H   0  0  0  0  0  0  0  0  0  0  0  0
   -1.4697  -15.2624   11.7915 H   0  0  0  0  0  0  0  0  0  0  0  0
   -3.0048  -14.3441    9.5345 H   0  0  0  0  0  0  0  0  0  0  0  0
   -1.4322  -15.2042    9.8560 H   0  0  0  0  0  0  0  0  0  0  0  0
   -2.8256  -15.9923    9.7768 H   0  0  0  0  0  0  0  0  0  0  0  0
   -0.1822  -13.4452   12.6427 H   0  0  0  0  0  0  0  0  0  0  0  0
    0.2053  -13.8155   11.0834 H   0  0  0  0  0  0  0  0  0  0  0  0
   -0.6300  -10.9500   12.2141 H   0  0  0  0  0  0  0  0  0  0  0  0
    2.2219  -10.4110   10.9075 H   0  0  0  0  0  0  0  0  0  0  0  0
    0.7536   -9.7395   10.0675 H   0  0  0  0  0  0  0  0  0  0  0  0
    3.7543   -7.4318   12.7186 H   0  0  0  0  0  0  0  0  0  0  0  0
    2.4986   -4.4520   11.7258 H   0  0  0  0  0  0  0  0  0  0  0  0
    4.1398   -8.1746   10.3573 H   0  0  0  0  0  0  0  0  0  0  0  0
   -6.1867  -21.3679   12.5700 H   0  0  0  0  0  0  0  0  0  0  0  0
   -7.6011  -23.0193   12.0473 H   0  0  0  0  0  0  0  0  0  0  0  0
  1  2  1  0
  2  3  2  0
  3  4  1  0
  4  5  2  0
  5  6  1  0
  6  7  1  0
  7  8  2  0
  7  9  1  0
  9 10  1  0
 10 11  1  0
 11 12  1  0
 11 13  1  0
 13 14  1  0
 14 15  1  0
 15 16  1  0
 16 17  1  0
 17 18  2  0
 18 19  1  0
 19 20  1  0
  6 21  2  0
 21 22  1  0
 22 23  2  0
 23 24  1  0
 24  2  1  0
 23  4  1  0
 20 16  2  0
  1 25  1  0
  1 26  1  0
  1 27  1  0
  5 28  1  0
  9 29  1  0
 10 30  1  0
 10 31  1  0
 11 32  1  0
 12 33  1  0
 12 34  1  0
 12 35  1  0
 13 36  1  0
 13 37  1  0
 14 38  1  0
 15 39  1  0
 15 40  1  0
 17 41  1  0
 18 42  1  0
 20 43  1  0
 21 44  1  0
 22 45  1  0
M  END
>  <Energy>  (133) 
1456.5857767177781

>  <compound_id>  (133) 
11176

>  <target_id>  (133) 
1

>  <reference_id>  (133) 
2

>  <inspiration_ids>  (133) 
[2, 66]

>  <energy_score>  (133) 
1391.6609244935844

>  <distance_score>  (133) 
8.398224531902345

>  <path>  (133) 
/opt/xchem-fragalysis-2/maxwin/BulkDock/SCRATCH/511014/C11176-P2/C11176-P2.minimised.mol

>  <scratch_subdir>  (133) 
/opt/xchem-fragalysis-2/maxwin/BulkDock/SCRATCH/511014/C11176-P2

>  <fragmenstein_runtime>  (133) 
18.096341848373413

>  <fragmenstein_outcome>  (133) 
too moved

>  <fragmenstein_mode>  (133) 
expansion

>  <fragmenstein_error>  (133) 


$$$$
C11176-P66
     RDKit          3D

 45 47  0  0  0  0  0  0  0  0999 V2000
   -8.5002  -20.5014   11.3897 C   0  0  0  0  0  0  0  0  0  0  0  0
   -7.2006  -19.6749   11.5761 C   0  0  0  0  0  0  0  0  0  0  0  0
   -6.7426  -18.8695   10.6946 N   0  0  0  0  0  0  0  0  0  0  0  0
   -6.4091  -17.5678   11.6755 C   0  0  0  0  0  0  0  0  0  0  0  0
   -5.7773  -15.8686   11.5517 C   0  0  0  0  0  0  0  0  0  0  0  0
   -5.0645  -15.1929   12.4660 C   0  0  0  0  0  0  0  0  0  0  0  0
   -3.2695  -14.3985   12.6581 C   0  0  0  0  0  0  0  0  0  0  0  0
   -3.3033  -13.7793   13.6025 O   0  0  0  0  0  0  0  0  0  0  0  0
   -1.3635  -14.1869   11.8074 N   0  0  0  0  0  0  0  0  0  0  0  0
    0.3272  -12.9405   12.3368 C   0  0  0  0  0  0  0  0  0  0  0  0
    1.9121  -11.3019   12.2986 C   0  0  0  0  0  0  0  0  0  0  0  0
    0.9878  -10.6399   11.3545 C   0  0  0  0  0  0  0  0  0  0  0  0
    3.7865  -10.3016   13.1723 C   0  0  0  0  0  0  0  0  0  0  0  0
    4.9559   -8.5806   13.7159 N   0  0  0  0  0  0  0  0  0  0  0  0
    6.8754   -7.6485   13.9098 C   0  0  0  0  0  0  0  0  0  0  0  0
    8.3852   -6.0249   14.4429 C   0  0  0  0  0  0  0  0  0  0  0  0
   10.2698   -5.0963   14.3898 C   0  0  0  0  0  0  0  0  0  0  0  0
   10.9747   -3.8354   14.3228 C   0  0  0  0  0  0  0  0  0  0  0  0
    9.8710   -2.6751   14.7910 S   0  0  0  0  0  0  0  0  0  0  0  0
    8.6991   -4.2347   15.0149 C   0  0  0  0  0  0  0  0  0  0  0  0
   -5.3284  -16.3944   13.7100 C   0  0  0  0  0  0  0  0  0  0  0  0
   -6.1839  -17.4506   14.0330 C   0  0  0  0  0  0  0  0  0  0  0  0
   -6.2343  -18.1571   12.8656 C   0  0  0  0  0  0  0  0  0  0  0  0
   -6.2048  -19.5813   12.5485 O   0  0  0  0  0  0  0  0  0  0  0  0
   -8.5389  -21.4951   11.8483 H   0  0  0  0  0  0  0  0  0  0  0  0
   -9.3355  -19.9120   11.7662 H   0  0  0  0  0  0  0  0  0  0  0  0
   -8.7051  -20.6415   10.3210 H   0  0  0  0  0  0  0  0  0  0  0  0
   -5.9703  -15.2803   10.6599 H   0  0  0  0  0  0  0  0  0  0  0  0
   -1.3010  -14.8085   11.0056 H   0  0  0  0  0  0  0  0  0  0  0  0
   -0.1131  -12.6296   13.2723 H   0  0  0  0  0  0  0  0  0  0  0  0
    0.9168  -13.8379   12.5377 H   0  0  0  0  0  0  0  0  0  0  0  0
    2.5115  -11.6112   11.3746 H   0  0  0  0  0  0  0  0  0  0  0  0
    0.4992  -11.3985   10.7783 H   0  0  0  0  0  0  0  0  0  0  0  0
    1.3548   -9.8207   10.7534 H   0  0  0  0  0  0  0  0  0  0  0  0
    0.1767  -10.4331   12.0086 H   0  0  0  0  0  0  0  0  0  0  0  0
    4.7370  -10.8772   13.1172 H   0  0  0  0  0  0  0  0  0  0  0  0
    3.6445  -10.5835   14.2186 H   0  0  0  0  0  0  0  0  0  0  0  0
    4.4416   -7.8390   13.2458 H   0  0  0  0  0  0  0  0  0  0  0  0
    7.1878   -7.7960   12.8681 H   0  0  0  0  0  0  0  0  0  0  0  0
    6.9915   -8.1474   14.7726 H   0  0  0  0  0  0  0  0  0  0  0  0
   10.8008   -5.7940   15.1166 H   0  0  0  0  0  0  0  0  0  0  0  0
   12.0206   -3.5845   14.3283 H   0  0  0  0  0  0  0  0  0  0  0  0
    9.5572   -4.2031   15.6680 H   0  0  0  0  0  0  0  0  0  0  0  0
   -4.4371  -16.5504   14.3870 H   0  0  0  0  0  0  0  0  0  0  0  0
   -7.1530  -17.0993   14.4182 H   0  0  0  0  0  0  0  0  0  0  0  0
  1  2  1  0
  2  3  2  0
  3  4  1  0
  4  5  2  0
  5  6  1  0
  6  7  1  0
  7  8  2  0
  7  9  1  0
  9 10  1  0
 10 11  1  0
 11 12  1  0
 11 13  1  0
 13 14  1  0
 14 15  1  0
 15 16  1  0
 16 17  1  0
 17 18  2  0
 18 19  1  0
 19 20  1  0
  6 21  2  0
 21 22  1  0
 22 23  2  0
 23 24  1  0
 24  2  1  0
 23  4  1  0
 20 16  2  0
  1 25  1  0
  1 26  1  0
  1 27  1  0
  5 28  1  0
  9 29  1  0
 10 30  1  0
 10 31  1  0
 11 32  1  0
 12 33  1  0
 12 34  1  0
 12 35  1  0
 13 36  1  0
 13 37  1  0
 14 38  1  0
 15 39  1  0
 15 40  1  0
 17 41  1  0
 18 42  1  0
 20 43  1  0
 21 44  1  0
 22 45  1  0
M  END
>  <Energy>  (134) 
2345.1296409098027

>  <compound_id>  (134) 
11176

>  <target_id>  (134) 
1

>  <reference_id>  (134) 
66

>  <inspiration_ids>  (134) 
[2, 66]

>  <energy_score>  (134) 
2280.204788685625

>  <distance_score>  (134) 
6.431113911369218

>  <path>  (134) 
/opt/xchem-fragalysis-2/maxwin/BulkDock/SCRATCH/511014/C11176-P66/C11176-P66.minimised.mol

>  <scratch_subdir>  (134) 
/opt/xchem-fragalysis-2/maxwin/BulkDock/SCRATCH/511014/C11176-P66

>  <fragmenstein_runtime>  (134) 
17.36258053779602

>  <fragmenstein_outcome>  (134) 
too moved

>  <fragmenstein_mode>  (134) 
expansion

>  <fragmenstein_error>  (134) 


$$$$
C11177-P2
     RDKit          3D

 43 45  0  0  0  0  0  0  0  0999 V2000
   -6.4731  -17.6616   12.7984 C   0  0  0  0  0  0  0  0  0  0  0  0
   -5.7472  -16.4216   13.4636 C   0  0  0  0  0  0  0  0  0  0  0  0
   -5.4782  -15.1518   12.8607 N   0  0  0  0  0  0  0  0  0  0  0  0
   -4.0158  -14.8818   13.1257 C   0  0  0  0  0  0  0  0  0  0  0  0
   -2.7652  -13.8939   13.5385 C   0  0  0  0  0  0  0  0  0  0  0  0
   -0.7220  -13.3674   13.6702 C   0  0  0  0  0  0  0  0  0  0  0  0
    0.9180  -11.8733   13.0867 C   0  0  0  0  0  0  0  0  0  0  0  0
    0.5892  -11.3487   11.9635 O   0  0  0  0  0  0  0  0  0  0  0  0
    2.6901  -10.8184   13.8405 N   0  0  0  0  0  0  0  0  0  0  0  0
    4.1834  -11.0723   13.6236 C   0  0  0  0  0  0  0  0  0  0  0  0
    3.4462  -10.7983   11.6561 C   0  0  0  0  0  0  0  0  0  0  0  0
    5.5319  -11.8278   13.8039 C   0  0  0  0  0  0  0  0  0  0  0  0
    3.8907   -9.0946   13.2482 C   0  0  0  0  0  0  0  0  0  0  0  0
    5.7489   -8.3394   13.8965 C   0  0  0  0  0  0  0  0  0  0  0  0
    4.2410   -7.1689   13.3635 C   0  0  0  0  0  0  0  0  0  0  0  0
    4.2461   -6.2891   12.0564 C   0  0  0  0  0  0  0  0  0  0  0  0
    4.0001   -4.9356   12.2276 C   0  0  0  0  0  0  0  0  0  0  0  0
    3.6518   -4.4977   13.8505 S   0  0  0  0  0  0  0  0  0  0  0  0
    4.1002   -6.1397   14.4222 C   0  0  0  0  0  0  0  0  0  0  0  0
   -1.3809  -14.3290   15.1215 C   0  0  0  0  0  0  0  0  0  0  0  0
   -2.6786  -15.5165   15.4675 C   0  0  0  0  0  0  0  0  0  0  0  0
   -3.7022  -16.2196   14.3659 C   0  0  0  0  0  0  0  0  0  0  0  0
   -4.9001  -16.7260   14.5340 O   0  0  0  0  0  0  0  0  0  0  0  0
   -7.5214  -17.6304   13.0701 H   0  0  0  0  0  0  0  0  0  0  0  0
   -6.0831  -18.6668   12.9139 H   0  0  0  0  0  0  0  0  0  0  0  0
   -6.4244  -17.4791   11.7516 H   0  0  0  0  0  0  0  0  0  0  0  0
   -2.9420  -14.3654   12.2334 H   0  0  0  0  0  0  0  0  0  0  0  0
    4.5582  -10.3596   14.3061 H   0  0  0  0  0  0  0  0  0  0  0  0
    2.6765  -11.5112   11.2990 H   0  0  0  0  0  0  0  0  0  0  0  0
    4.1465  -11.1779   10.9199 H   0  0  0  0  0  0  0  0  0  0  0  0
    2.8552   -9.9728   11.2654 H   0  0  0  0  0  0  0  0  0  0  0  0
    6.3544  -11.1495   13.5521 H   0  0  0  0  0  0  0  0  0  0  0  0
    5.7161  -12.0854   14.8240 H   0  0  0  0  0  0  0  0  0  0  0  0
    5.8092  -12.7092   13.2636 H   0  0  0  0  0  0  0  0  0  0  0  0
    3.6973   -8.6962   12.1901 H   0  0  0  0  0  0  0  0  0  0  0  0
    6.5425   -9.1042   13.6947 H   0  0  0  0  0  0  0  0  0  0  0  0
    6.1601   -7.7004   13.0473 H   0  0  0  0  0  0  0  0  0  0  0  0
    6.2291   -7.6148   14.5646 H   0  0  0  0  0  0  0  0  0  0  0  0
    4.2320   -6.7031   11.0563 H   0  0  0  0  0  0  0  0  0  0  0  0
    3.9055   -4.1889   11.4511 H   0  0  0  0  0  0  0  0  0  0  0  0
    4.0012   -6.2238   15.4803 H   0  0  0  0  0  0  0  0  0  0  0  0
   -1.0574  -14.1805   16.1986 H   0  0  0  0  0  0  0  0  0  0  0  0
   -3.0441  -15.5838   16.4924 H   0  0  0  0  0  0  0  0  0  0  0  0
  1  2  1  0
  2  3  2  0
  3  4  1  0
  4  5  2  0
  5  6  1  0
  6  7  1  0
  7  8  2  0
  7  9  1  0
  9 10  1  0
 10 11  1  0
 10 12  1  0
  9 13  1  0
 13 14  1  0
 13 15  1  0
 15 16  1  0
 16 17  2  0
 17 18  1  0
 18 19  1  0
  6 20  2  0
 20 21  1  0
 21 22  2  0
 22 23  1  0
 23  2  1  0
 22  4  1  0
 19 15  2  0
  1 24  1  0
  1 25  1  0
  1 26  1  0
  5 27  1  0
 10 28  1  0
 11 29  1  0
 11 30  1  0
 11 31  1  0
 12 32  1  0
 12 33  1  0
 12 34  1  0
 13 35  1  0
 14 36  1  0
 14 37  1  0
 14 38  1  0
 16 39  1  0
 17 40  1  0
 19 41  1  0
 20 42  1  0
 21 43  1  0
M  END
>  <Energy>  (135) 
2122.5807887118285

>  <compound_id>  (135) 
11177

>  <target_id>  (135) 
1

>  <reference_id>  (135) 
2

>  <inspiration_ids>  (135) 
[2, 66]

>  <energy_score>  (135) 
2024.9193760442627

>  <distance_score>  (135) 
10.584815303246915

>  <path>  (135) 
/opt/xchem-fragalysis-2/maxwin/BulkDock/SCRATCH/511014/C11177-P2/C11177-P2.minimised.mol

>  <scratch_subdir>  (135) 
/opt/xchem-fragalysis-2/maxwin/BulkDock/SCRATCH/511014/C11177-P2

>  <fragmenstein_runtime>  (135) 
13.561584234237671

>  <fragmenstein_outcome>  (135) 
too moved

>  <fragmenstein_mode>  (135) 
expansion

>  <fragmenstein_error>  (135) 


$$$$
C11177-P66
     RDKit          3D

 43 45  0  0  0  0  0  0  0  0999 V2000
   -6.7732  -17.7849    8.2327 C   0  0  0  0  0  0  0  0  0  0  0  0
   -5.6580  -17.8677    9.5855 C   0  0  0  0  0  0  0  0  0  0  0  0
   -3.6892  -17.3635    9.3643 N   0  0  0  0  0  0  0  0  0  0  0  0
   -2.5392  -15.8471   10.4065 C   0  0  0  0  0  0  0  0  0  0  0  0
   -0.8112  -15.0951   11.4101 C   0  0  0  0  0  0  0  0  0  0  0  0
    0.4479  -14.1723   12.8560 C   0  0  0  0  0  0  0  0  0  0  0  0
    2.1763  -13.3041   14.1291 C   0  0  0  0  0  0  0  0  0  0  0  0
    1.7297  -12.8640   15.1624 O   0  0  0  0  0  0  0  0  0  0  0  0
    4.3787  -12.8073   14.0303 N   0  0  0  0  0  0  0  0  0  0  0  0
    4.6310  -11.0059   13.0774 C   0  0  0  0  0  0  0  0  0  0  0  0
    4.1687  -11.3574   11.0939 C   0  0  0  0  0  0  0  0  0  0  0  0
    2.8762  -10.8529   12.0691 C   0  0  0  0  0  0  0  0  0  0  0  0
    5.4924  -12.0897   15.1075 C   0  0  0  0  0  0  0  0  0  0  0  0
    7.0138  -12.5516   16.3067 C   0  0  0  0  0  0  0  0  0  0  0  0
    7.0628  -11.8747   14.0514 C   0  0  0  0  0  0  0  0  0  0  0  0
    8.3076  -11.2404   14.4948 C   0  0  0  0  0  0  0  0  0  0  0  0
    9.4922  -11.7403   13.9885 C   0  0  0  0  0  0  0  0  0  0  0  0
    9.1921  -12.8810   12.7878 S   0  0  0  0  0  0  0  0  0  0  0  0
    7.5271  -12.8880   13.1816 C   0  0  0  0  0  0  0  0  0  0  0  0
   -1.1667  -14.0856   13.6219 C   0  0  0  0  0  0  0  0  0  0  0  0
   -3.1552  -14.3981   12.9113 C   0  0  0  0  0  0  0  0  0  0  0  0
   -3.8790  -15.4003   11.4720 C   0  0  0  0  0  0  0  0  0  0  0  0
   -5.7233  -16.3452   11.1491 O   0  0  0  0  0  0  0  0  0  0  0  0
   -7.0185  -16.7301    8.4240 H   0  0  0  0  0  0  0  0  0  0  0  0
   -7.0612  -18.7880    8.5676 H   0  0  0  0  0  0  0  0  0  0  0  0
   -7.8400  -17.9140    8.0865 H   0  0  0  0  0  0  0  0  0  0  0  0
   -0.0634  -15.5756   10.7314 H   0  0  0  0  0  0  0  0  0  0  0  0
    4.1934  -10.3115   13.7814 H   0  0  0  0  0  0  0  0  0  0  0  0
    4.6507  -10.7780   10.2850 H   0  0  0  0  0  0  0  0  0  0  0  0
    3.8909  -12.4484   10.9301 H   0  0  0  0  0  0  0  0  0  0  0  0
    3.3804  -11.0432   10.3124 H   0  0  0  0  0  0  0  0  0  0  0  0
    2.2735  -11.5720   11.3978 H   0  0  0  0  0  0  0  0  0  0  0  0
    2.1016  -11.1090   12.7994 H   0  0  0  0  0  0  0  0  0  0  0  0
    2.8070   -9.9408   11.4145 H   0  0  0  0  0  0  0  0  0  0  0  0
    5.8886  -12.9552   14.5670 H   0  0  0  0  0  0  0  0  0  0  0  0
    6.7593  -12.7179   17.3832 H   0  0  0  0  0  0  0  0  0  0  0  0
    7.7128  -11.7384   16.5096 H   0  0  0  0  0  0  0  0  0  0  0  0
    7.5948  -13.4095   15.9259 H   0  0  0  0  0  0  0  0  0  0  0  0
    8.3714  -10.5282   15.3082 H   0  0  0  0  0  0  0  0  0  0  0  0
   10.4974  -11.4553   14.2672 H   0  0  0  0  0  0  0  0  0  0  0  0
    6.9544  -13.7077   12.7740 H   0  0  0  0  0  0  0  0  0  0  0  0
   -1.1436  -14.1223   14.6740 H   0  0  0  0  0  0  0  0  0  0  0  0
   -2.6942  -14.4249   11.8055 H   0  0  0  0  0  0  0  0  0  0  0  0
  1  2  1  0
  2  3  2  0
  3  4  1  0
  4  5  2  0
  5  6  1  0
  6  7  1  0
  7  8  2  0
  7  9  1  0
  9 10  1  0
 10 11  1  0
 10 12  1  0
  9 13  1  0
 13 14  1  0
 13 15  1  0
 15 16  1  0
 16 17  2  0
 17 18  1  0
 18 19  1  0
  6 20  2  0
 20 21  1  0
 21 22  2  0
 22 23  1  0
 23  2  1  0
 22  4  1  0
 19 15  2  0
  1 24  1  0
  1 25  1  0
  1 26  1  0
  5 27  1  0
 10 28  1  0
 11 29  1  0
 11 30  1  0
 11 31  1  0
 12 32  1  0
 12 33  1  0
 12 34  1  0
 13 35  1  0
 14 36  1  0
 14 37  1  0
 14 38  1  0
 16 39  1  0
 17 40  1  0
 19 41  1  0
 20 42  1  0
 21 43  1  0
M  END
>  <Energy>  (136) 
3283.4789741896589

>  <compound_id>  (136) 
11177

>  <target_id>  (136) 
1

>  <reference_id>  (136) 
66

>  <inspiration_ids>  (136) 
[2, 66]

>  <energy_score>  (136) 
3185.8175615220707

>  <distance_score>  (136) 
10.676097412546513

>  <path>  (136) 
/opt/xchem-fragalysis-2/maxwin/BulkDock/SCRATCH/511014/C11177-P66/C11177-P66.minimised.mol

>  <scratch_subdir>  (136) 
/opt/xchem-fragalysis-2/maxwin/BulkDock/SCRATCH/511014/C11177-P66

>  <fragmenstein_runtime>  (136) 
19.337435483932495

>  <fragmenstein_outcome>  (136) 
too moved

>  <fragmenstein_mode>  (136) 
expansion

>  <fragmenstein_error>  (136) 


$$$$
C11178-P2
     RDKit          3D

 38 40  0  0  0  0  0  0  0  0999 V2000
   -8.2547  -22.0671   11.2751 C   0  0  0  0  0  0  0  0  0  0  0  0
   -7.5307  -20.7748   11.1750 C   0  0  0  0  0  0  0  0  0  0  0  0
   -7.7036  -19.9316   10.2062 N   0  0  0  0  0  0  0  0  0  0  0  0
   -6.6014  -19.1248   10.3136 C   0  0  0  0  0  0  0  0  0  0  0  0
   -5.8440  -18.0948    8.9607 C   0  0  0  0  0  0  0  0  0  0  0  0
   -3.9387  -17.5716    8.7411 C   0  0  0  0  0  0  0  0  0  0  0  0
   -2.7729  -17.7360    9.7729 C   0  0  0  0  0  0  0  0  0  0  0  0
   -1.7109  -16.0204   10.0393 O   0  0  0  0  0  0  0  0  0  0  0  0
   -0.7919  -14.7582   11.4312 C   0  0  0  0  0  0  0  0  0  0  0  0
    0.5360  -13.0927   12.0004 C   0  0  0  0  0  0  0  0  0  0  0  0
    1.0716  -12.7146   11.0429 O   0  0  0  0  0  0  0  0  0  0  0  0
    1.2944  -12.1276   13.5971 N   0  0  0  0  0  0  0  0  0  0  0  0
    2.9613  -10.7318   13.8135 C   0  0  0  0  0  0  0  0  0  0  0  0
    4.1085   -8.9752   13.6672 C   0  0  0  0  0  0  0  0  0  0  0  0
    5.7520   -8.0163   13.8222 C   0  0  0  0  0  0  0  0  0  0  0  0
    6.1456   -7.2276   12.7283 C   0  0  0  0  0  0  0  0  0  0  0  0
    7.5003   -7.4920   12.5727 C   0  0  0  0  0  0  0  0  0  0  0  0
    8.4124   -7.1198   14.6010 S   0  0  0  0  0  0  0  0  0  0  0  0
    6.6100   -7.4414   14.8911 C   0  0  0  0  0  0  0  0  0  0  0  0
   -3.5446  -19.2639   10.8102 C   0  0  0  0  0  0  0  0  0  0  0  0
   -5.3647  -19.5897   11.5703 C   0  0  0  0  0  0  0  0  0  0  0  0
   -6.4933  -20.5785   12.0517 O   0  0  0  0  0  0  0  0  0  0  0  0
   -8.2827  -22.5603   10.2984 H   0  0  0  0  0  0  0  0  0  0  0  0
   -9.2855  -21.9099   11.6015 H   0  0  0  0  0  0  0  0  0  0  0  0
   -7.7615  -22.7429   11.9774 H   0  0  0  0  0  0  0  0  0  0  0  0
   -6.6355  -17.7457    8.3081 H   0  0  0  0  0  0  0  0  0  0  0  0
   -3.7346  -16.7776    8.0026 H   0  0  0  0  0  0  0  0  0  0  0  0
   -0.7759  -14.2253   10.5193 H   0  0  0  0  0  0  0  0  0  0  0  0
    0.0157  -15.5036   11.4731 H   0  0  0  0  0  0  0  0  0  0  0  0
    0.8834  -12.5277   14.4201 H   0  0  0  0  0  0  0  0  0  0  0  0
    3.5396  -10.9754   14.8130 H   0  0  0  0  0  0  0  0  0  0  0  0
    4.0280  -10.9874   13.5472 H   0  0  0  0  0  0  0  0  0  0  0  0
    3.9251   -8.5137   12.7059 H   0  0  0  0  0  0  0  0  0  0  0  0
    3.6384   -8.1925   14.2782 H   0  0  0  0  0  0  0  0  0  0  0  0
    5.5425   -6.6786   12.0028 H   0  0  0  0  0  0  0  0  0  0  0  0
    8.1333   -7.3314   11.7276 H   0  0  0  0  0  0  0  0  0  0  0  0
    6.3897   -6.8507   15.7962 H   0  0  0  0  0  0  0  0  0  0  0  0
   -3.5247  -20.0670   10.0283 H   0  0  0  0  0  0  0  0  0  0  0  0
  1  2  1  0
  2  3  2  0
  3  4  1  0
  4  5  2  0
  5  6  1  0
  6  7  2  0
  7  8  1  0
  8  9  1  0
  9 10  1  0
 10 11  2  0
 10 12  1  0
 12 13  1  0
 13 14  1  0
 14 15  1  0
 15 16  1  0
 16 17  2  0
 17 18  1  0
 18 19  1  0
  7 20  1  0
 20 21  2  0
 21 22  1  0
 22  2  1  0
 21  4  1  0
 19 15  2  0
  1 23  1  0
  1 24  1  0
  1 25  1  0
  5 26  1  0
  6 27  1  0
  9 28  1  0
  9 29  1  0
 12 30  1  0
 13 31  1  0
 13 32  1  0
 14 33  1  0
 14 34  1  0
 16 35  1  0
 17 36  1  0
 19 37  1  0
 20 38  1  0
M  END
>  <Energy>  (137) 
1818.5414185258392

>  <compound_id>  (137) 
11178

>  <target_id>  (137) 
1

>  <reference_id>  (137) 
2

>  <inspiration_ids>  (137) 
[2, 66]

>  <energy_score>  (137) 
1739.9839958210093

>  <distance_score>  (137) 
7.391179524123346

>  <path>  (137) 
/opt/xchem-fragalysis-2/maxwin/BulkDock/SCRATCH/511014/C11178-P2/C11178-P2.minimised.mol

>  <scratch_subdir>  (137) 
/opt/xchem-fragalysis-2/maxwin/BulkDock/SCRATCH/511014/C11178-P2

>  <fragmenstein_runtime>  (137) 
11.342966079711914

>  <fragmenstein_outcome>  (137) 
too moved

>  <fragmenstein_mode>  (137) 
expansion

>  <fragmenstein_error>  (137) 


$$$$
C11178-P66
     RDKit          3D

 38 40  0  0  0  0  0  0  0  0999 V2000
   -6.2498  -19.5488   12.1829 C   0  0  0  0  0  0  0  0  0  0  0  0
   -6.1206  -18.2832   12.9092 C   0  0  0  0  0  0  0  0  0  0  0  0
   -6.7292  -17.2921   13.4223 N   0  0  0  0  0  0  0  0  0  0  0  0
   -5.6641  -16.3811   13.5071 C   0  0  0  0  0  0  0  0  0  0  0  0
   -5.1973  -15.0783   12.7787 C   0  0  0  0  0  0  0  0  0  0  0  0
   -3.6357  -14.4707   13.0896 C   0  0  0  0  0  0  0  0  0  0  0  0
   -2.5291  -14.8207   14.5882 C   0  0  0  0  0  0  0  0  0  0  0  0
   -0.9097  -14.0418   13.7711 O   0  0  0  0  0  0  0  0  0  0  0  0
    0.6135  -12.8002   13.4687 C   0  0  0  0  0  0  0  0  0  0  0  0
    2.0073  -11.2608   12.8765 C   0  0  0  0  0  0  0  0  0  0  0  0
    1.6745  -10.8103   11.7393 O   0  0  0  0  0  0  0  0  0  0  0  0
    3.4924  -10.4971   13.9813 N   0  0  0  0  0  0  0  0  0  0  0  0
    4.6649   -8.8397   13.7224 C   0  0  0  0  0  0  0  0  0  0  0  0
    6.3372   -7.6177   14.3410 C   0  0  0  0  0  0  0  0  0  0  0  0
    7.7185   -6.2446   15.2676 C   0  0  0  0  0  0  0  0  0  0  0  0
    8.8471   -4.5610   14.7703 C   0  0  0  0  0  0  0  0  0  0  0  0
   10.3962   -4.3648   14.4531 C   0  0  0  0  0  0  0  0  0  0  0  0
   10.4856   -4.1803   16.0130 S   0  0  0  0  0  0  0  0  0  0  0  0
    8.0935   -4.5915   15.8828 C   0  0  0  0  0  0  0  0  0  0  0  0
   -3.2197  -16.3686   14.8787 C   0  0  0  0  0  0  0  0  0  0  0  0
   -4.6548  -16.8587   14.2998 C   0  0  0  0  0  0  0  0  0  0  0  0
   -5.2619  -18.4861   13.8940 O   0  0  0  0  0  0  0  0  0  0  0  0
   -6.8084  -19.4118   11.2701 H   0  0  0  0  0  0  0  0  0  0  0  0
   -6.7085  -20.3997   12.6935 H   0  0  0  0  0  0  0  0  0  0  0  0
   -5.2332  -19.9943   12.1271 H   0  0  0  0  0  0  0  0  0  0  0  0
   -5.5797  -15.1619   11.7767 H   0  0  0  0  0  0  0  0  0  0  0  0
   -3.1489  -14.6010   12.0979 H   0  0  0  0  0  0  0  0  0  0  0  0
    0.9559  -13.6413   12.8442 H   0  0  0  0  0  0  0  0  0  0  0  0
   -0.0998  -12.3113   12.7885 H   0  0  0  0  0  0  0  0  0  0  0  0
    3.6307  -11.0661   14.8046 H   0  0  0  0  0  0  0  0  0  0  0  0
    4.2093   -8.3301   12.8840 H   0  0  0  0  0  0  0  0  0  0  0  0
    3.9499   -8.1736   14.1722 H   0  0  0  0  0  0  0  0  0  0  0  0
    6.8601   -7.7570   13.3716 H   0  0  0  0  0  0  0  0  0  0  0  0
    5.5718   -6.8239   14.2227 H   0  0  0  0  0  0  0  0  0  0  0  0
    8.3596   -3.4201   14.4955 H   0  0  0  0  0  0  0  0  0  0  0  0
   10.9390   -3.6689   13.8160 H   0  0  0  0  0  0  0  0  0  0  0  0
    7.3610   -5.0587   16.5930 H   0  0  0  0  0  0  0  0  0  0  0  0
   -2.6838  -17.3008   14.9219 H   0  0  0  0  0  0  0  0  0  0  0  0
  1  2  1  0
  2  3  2  0
  3  4  1  0
  4  5  2  0
  5  6  1  0
  6  7  2  0
  7  8  1  0
  8  9  1  0
  9 10  1  0
 10 11  2  0
 10 12  1  0
 12 13  1  0
 13 14  1  0
 14 15  1  0
 15 16  1  0
 16 17  2  0
 17 18  1  0
 18 19  1  0
  7 20  1  0
 20 21  2  0
 21 22  1  0
 22  2  1  0
 21  4  1  0
 19 15  2  0
  1 23  1  0
  1 24  1  0
  1 25  1  0
  5 26  1  0
  6 27  1  0
  9 28  1  0
  9 29  1  0
 12 30  1  0
 13 31  1  0
 13 32  1  0
 14 33  1  0
 14 34  1  0
 16 35  1  0
 17 36  1  0
 19 37  1  0
 20 38  1  0
M  END
>  <Energy>  (138) 
1968.4557380315412

>  <compound_id>  (138) 
11178

>  <target_id>  (138) 
1

>  <reference_id>  (138) 
66

>  <inspiration_ids>  (138) 
[2, 66]

>  <energy_score>  (138) 
1889.8983153267109

>  <distance_score>  (138) 
8.01976360061555

>  <path>  (138) 
/opt/xchem-fragalysis-2/maxwin/BulkDock/SCRATCH/511014/C11178-P66/C11178-P66.minimised.mol

>  <scratch_subdir>  (138) 
/opt/xchem-fragalysis-2/maxwin/BulkDock/SCRATCH/511014/C11178-P66

>  <fragmenstein_runtime>  (138) 
16.703325510025024

>  <fragmenstein_outcome>  (138) 
too moved

>  <fragmenstein_mode>  (138) 
expansion

>  <fragmenstein_error>  (138) 


$$$$
C11179-P2
     RDKit          3D

 43 45  0  0  0  0  0  0  0  0999 V2000
   -6.5315  -17.5953   12.8640 C   0  0  0  0  0  0  0  0  0  0  0  0
   -6.0122  -16.4019   13.8475 C   0  0  0  0  0  0  0  0  0  0  0  0
   -6.6458  -15.5718   14.6808 N   0  0  0  0  0  0  0  0  0  0  0  0
   -5.6302  -15.2175   15.5232 C   0  0  0  0  0  0  0  0  0  0  0  0
   -5.3792  -14.2169   16.4208 C   0  0  0  0  0  0  0  0  0  0  0  0
   -3.9882  -14.0645   16.4854 C   0  0  0  0  0  0  0  0  0  0  0  0
   -3.1389  -14.8421   15.6063 C   0  0  0  0  0  0  0  0  0  0  0  0
   -2.9594  -14.0742   13.9077 C   0  0  0  0  0  0  0  0  0  0  0  0
   -3.9228  -13.6007   13.3273 O   0  0  0  0  0  0  0  0  0  0  0  0
   -0.9636  -14.0848   13.4382 N   0  0  0  0  0  0  0  0  0  0  0  0
    0.5220  -12.8568   13.8752 C   0  0  0  0  0  0  0  0  0  0  0  0
    1.8471  -12.8263   15.5104 C   0  0  0  0  0  0  0  0  0  0  0  0
    1.5641  -13.6641   16.9083 C   0  0  0  0  0  0  0  0  0  0  0  0
    2.4670  -13.5675   17.9429 C   0  0  0  0  0  0  0  0  0  0  0  0
    3.7657  -12.5678   17.5823 S   0  0  0  0  0  0  0  0  0  0  0  0
    3.2064  -12.3405   15.9786 C   0  0  0  0  0  0  0  0  0  0  0  0
   -0.2725  -13.5108   12.0310 C   0  0  0  0  0  0  0  0  0  0  0  0
   -0.4788  -14.7863   11.1852 C   0  0  0  0  0  0  0  0  0  0  0  0
    0.8863  -12.8867   11.3557 C   0  0  0  0  0  0  0  0  0  0  0  0
   -0.5774  -11.6735   11.9253 C   0  0  0  0  0  0  0  0  0  0  0  0
   -3.3182  -16.1467   15.8247 C   0  0  0  0  0  0  0  0  0  0  0  0
   -4.5651  -16.0683   15.3204 C   0  0  0  0  0  0  0  0  0  0  0  0
   -4.7626  -16.6572   14.1996 O   0  0  0  0  0  0  0  0  0  0  0  0
   -6.3748  -17.3026   11.8482 H   0  0  0  0  0  0  0  0  0  0  0  0
   -7.6037  -17.6308   13.0475 H   0  0  0  0  0  0  0  0  0  0  0  0
   -6.1316  -18.6017   12.9470 H   0  0  0  0  0  0  0  0  0  0  0  0
   -6.0936  -13.5059   16.8014 H   0  0  0  0  0  0  0  0  0  0  0  0
   -3.5752  -13.2184   17.0285 H   0  0  0  0  0  0  0  0  0  0  0  0
    1.1412  -13.6481   13.4681 H   0  0  0  0  0  0  0  0  0  0  0  0
    0.8149  -12.0925   13.2741 H   0  0  0  0  0  0  0  0  0  0  0  0
    0.6675  -14.2707   17.0159 H   0  0  0  0  0  0  0  0  0  0  0  0
    2.3959  -14.0459   18.9101 H   0  0  0  0  0  0  0  0  0  0  0  0
    3.9496  -11.7521   15.4420 H   0  0  0  0  0  0  0  0  0  0  0  0
    0.2496  -15.0279   10.4230 H   0  0  0  0  0  0  0  0  0  0  0  0
   -0.2112  -15.6383   11.8068 H   0  0  0  0  0  0  0  0  0  0  0  0
   -1.4913  -14.9229   10.8133 H   0  0  0  0  0  0  0  0  0  0  0  0
    1.3159  -11.8624   11.3906 H   0  0  0  0  0  0  0  0  0  0  0  0
    0.1760  -12.7428   10.6240 H   0  0  0  0  0  0  0  0  0  0  0  0
    1.7529  -13.0562   10.7951 H   0  0  0  0  0  0  0  0  0  0  0  0
   -0.8826  -11.4848   10.9197 H   0  0  0  0  0  0  0  0  0  0  0  0
    0.2184  -10.9111   11.9002 H   0  0  0  0  0  0  0  0  0  0  0  0
   -1.0070  -11.1856   12.7742 H   0  0  0  0  0  0  0  0  0  0  0  0
   -2.6659  -16.9172   15.4507 H   0  0  0  0  0  0  0  0  0  0  0  0
  1  2  1  0
  2  3  2  0
  3  4  1  0
  4  5  2  0
  5  6  1  0
  6  7  2  0
  7  8  1  0
  8  9  2  0
  8 10  1  0
 10 11  1  0
 11 12  1  0
 12 13  1  0
 13 14  2  0
 14 15  1  0
 15 16  1  0
 10 17  1  0
 17 18  1  0
 17 19  1  0
 17 20  1  0
  7 21  1  0
 21 22  2  0
 22 23  1  0
 23  2  1  0
 22  4  1  0
 16 12  2  0
  1 24  1  0
  1 25  1  0
  1 26  1  0
  5 27  1  0
  6 28  1  0
 11 29  1  0
 11 30  1  0
 13 31  1  0
 14 32  1  0
 16 33  1  0
 18 34  1  0
 18 35  1  0
 18 36  1  0
 19 37  1  0
 19 38  1  0
 19 39  1  0
 20 40  1  0
 20 41  1  0
 20 42  1  0
 21 43  1  0
M  END
>  <Energy>  (139) 
909.15520970385455

>  <compound_id>  (139) 
11179

>  <target_id>  (139) 
1

>  <reference_id>  (139) 
2

>  <inspiration_ids>  (139) 
[2, 66]

>  <energy_score>  (139) 
791.8478292551202

>  <distance_score>  (139) 
12.69800779373358

>  <path>  (139) 
/opt/xchem-fragalysis-2/maxwin/BulkDock/SCRATCH/511014/C11179-P2/C11179-P2.minimised.mol

>  <scratch_subdir>  (139) 
/opt/xchem-fragalysis-2/maxwin/BulkDock/SCRATCH/511014/C11179-P2

>  <fragmenstein_runtime>  (139) 
23.427149534225464

>  <fragmenstein_outcome>  (139) 
too moved

>  <fragmenstein_mode>  (139) 
expansion

>  <fragmenstein_error>  (139) 


$$$$
C11179-P66
     RDKit          3D

 43 45  0  0  0  0  0  0  0  0999 V2000
   -7.7700  -19.1202    4.9324 C   0  0  0  0  0  0  0  0  0  0  0  0
   -6.3323  -18.2417    5.8256 C   0  0  0  0  0  0  0  0  0  0  0  0
   -5.9257  -17.4641    7.6049 N   0  0  0  0  0  0  0  0  0  0  0  0
   -4.4030  -15.9384    7.6169 C   0  0  0  0  0  0  0  0  0  0  0  0
   -4.4121  -14.1619    8.1191 C   0  0  0  0  0  0  0  0  0  0  0  0
   -3.7905  -12.4392    7.5938 C   0  0  0  0  0  0  0  0  0  0  0  0
   -2.9039  -11.9684    6.0077 C   0  0  0  0  0  0  0  0  0  0  0  0
   -1.5068  -10.4075    6.5384 C   0  0  0  0  0  0  0  0  0  0  0  0
   -1.7858  -10.0786    7.6182 O   0  0  0  0  0  0  0  0  0  0  0  0
    0.2029   -9.4393    6.0219 N   0  0  0  0  0  0  0  0  0  0  0  0
    2.0865   -9.8918    6.1478 C   0  0  0  0  0  0  0  0  0  0  0  0
    3.0242   -8.7320    4.7644 C   0  0  0  0  0  0  0  0  0  0  0  0
    4.7413   -8.1386    4.8678 C   0  0  0  0  0  0  0  0  0  0  0  0
    5.5451   -7.6301    3.8227 C   0  0  0  0  0  0  0  0  0  0  0  0
    4.7729   -7.7679    2.2838 S   0  0  0  0  0  0  0  0  0  0  0  0
    3.4240   -8.7476    3.0716 C   0  0  0  0  0  0  0  0  0  0  0  0
    1.0863   -8.1763    6.9576 C   0  0  0  0  0  0  0  0  0  0  0  0
    0.6374   -9.4923    7.3248 C   0  0  0  0  0  0  0  0  0  0  0  0
   -0.0323   -6.7340    7.7078 C   0  0  0  0  0  0  0  0  0  0  0  0
    0.4550   -8.1140    8.8908 C   0  0  0  0  0  0  0  0  0  0  0  0
   -3.8898  -13.5009    5.3244 C   0  0  0  0  0  0  0  0  0  0  0  0
   -4.9221  -15.0733    5.9298 C   0  0  0  0  0  0  0  0  0  0  0  0
   -5.4745  -16.6295    4.7706 O   0  0  0  0  0  0  0  0  0  0  0  0
   -8.6228  -18.4674    4.7674 H   0  0  0  0  0  0  0  0  0  0  0  0
   -7.3376  -19.4035    3.9606 H   0  0  0  0  0  0  0  0  0  0  0  0
   -8.1417  -20.0058    5.4657 H   0  0  0  0  0  0  0  0  0  0  0  0
   -4.8736  -14.2631    9.0843 H   0  0  0  0  0  0  0  0  0  0  0  0
   -3.9486  -11.5208    8.0639 H   0  0  0  0  0  0  0  0  0  0  0  0
    2.0952  -10.8450    5.5895 H   0  0  0  0  0  0  0  0  0  0  0  0
    2.6913   -9.8063    7.0366 H   0  0  0  0  0  0  0  0  0  0  0  0
    5.2510   -8.1758    5.7644 H   0  0  0  0  0  0  0  0  0  0  0  0
    6.5511   -7.2338    3.8879 H   0  0  0  0  0  0  0  0  0  0  0  0
    3.4107   -9.6562    2.4605 H   0  0  0  0  0  0  0  0  0  0  0  0
    0.6604  -10.7639    6.8201 H   0  0  0  0  0  0  0  0  0  0  0  0
   -0.3310   -8.9592    7.5575 H   0  0  0  0  0  0  0  0  0  0  0  0
    1.2734  -10.1344    7.8811 H   0  0  0  0  0  0  0  0  0  0  0  0
    0.4134   -5.9676    8.3631 H   0  0  0  0  0  0  0  0  0  0  0  0
   -0.4397   -6.1138    6.9563 H   0  0  0  0  0  0  0  0  0  0  0  0
   -1.0035   -7.0549    7.9998 H   0  0  0  0  0  0  0  0  0  0  0  0
   -0.6033   -8.2252    9.0115 H   0  0  0  0  0  0  0  0  0  0  0  0
    0.8300   -7.3401    9.5808 H   0  0  0  0  0  0  0  0  0  0  0  0
    0.6311   -9.0182    9.5306 H   0  0  0  0  0  0  0  0  0  0  0  0
   -4.5137  -13.2774    6.1569 H   0  0  0  0  0  0  0  0  0  0  0  0
  1  2  1  0
  2  3  2  0
  3  4  1  0
  4  5  2  0
  5  6  1  0
  6  7  2  0
  7  8  1  0
  8  9  2  0
  8 10  1  0
 10 11  1  0
 11 12  1  0
 12 13  1  0
 13 14  2  0
 14 15  1  0
 15 16  1  0
 10 17  1  0
 17 18  1  0
 17 19  1  0
 17 20  1  0
  7 21  1  0
 21 22  2  0
 22 23  1  0
 23  2  1  0
 22  4  1  0
 16 12  2  0
  1 24  1  0
  1 25  1  0
  1 26  1  0
  5 27  1  0
  6 28  1  0
 11 29  1  0
 11 30  1  0
 13 31  1  0
 14 32  1  0
 16 33  1  0
 18 34  1  0
 18 35  1  0
 18 36  1  0
 19 37  1  0
 19 38  1  0
 19 39  1  0
 20 40  1  0
 20 41  1  0
 20 42  1  0
 21 43  1  0
M  END
>  <Energy>  (140) 
2719.3984322133415

>  <compound_id>  (140) 
11179

>  <target_id>  (140) 
1

>  <reference_id>  (140) 
66

>  <inspiration_ids>  (140) 
[2, 66]

>  <energy_score>  (140) 
2602.0910517646553

>  <distance_score>  (140) 
12.598873460671753

>  <path>  (140) 
/opt/xchem-fragalysis-2/maxwin/BulkDock/SCRATCH/511014/C11179-P66/C11179-P66.minimised.mol

>  <scratch_subdir>  (140) 
/opt/xchem-fragalysis-2/maxwin/BulkDock/SCRATCH/511014/C11179-P66

>  <fragmenstein_runtime>  (140) 
15.625481367111206

>  <fragmenstein_outcome>  (140) 
too moved

>  <fragmenstein_mode>  (140) 
expansion

>  <fragmenstein_error>  (140) 


$$$$
C11180-P2
     RDKit          3D

 47 50  0  0  0  0  0  0  0  0999 V2000
    4.7999  -11.0243   14.0695 O   0  0  0  0  0  0  0  0  0  0  0  0
    4.4797  -10.0811   13.3622 C   0  0  0  0  0  0  0  0  0  0  0  0
    5.6700   -8.3451   13.8729 C   0  0  0  0  0  0  0  0  0  0  0  0
    7.1753   -7.5524   14.5596 C   0  0  0  0  0  0  0  0  0  0  0  0
    8.4654   -5.8933   14.5923 C   0  0  0  0  0  0  0  0  0  0  0  0
    8.4918   -3.9496   15.0670 C   0  0  0  0  0  0  0  0  0  0  0  0
    9.3014   -2.8043   14.8517 C   0  0  0  0  0  0  0  0  0  0  0  0
   10.8430   -3.3199   14.6064 S   0  0  0  0  0  0  0  0  0  0  0  0
   10.1246   -4.9490   14.4801 C   0  0  0  0  0  0  0  0  0  0  0  0
    3.1727  -10.3281   11.8938 N   0  0  0  0  0  0  0  0  0  0  0  0
    2.2538  -11.9425   11.1488 C   0  0  0  0  0  0  0  0  0  0  0  0
    0.9076  -13.5559   11.3295 C   0  0  0  0  0  0  0  0  0  0  0  0
    0.9334  -15.3111   10.5255 C   0  0  0  0  0  0  0  0  0  0  0  0
   -0.2762  -16.4053    9.8404 C   0  0  0  0  0  0  0  0  0  0  0  0
   -1.8962  -16.2301    9.3343 N   0  0  0  0  0  0  0  0  0  0  0  0
   -3.2584  -17.1815    8.7757 C   0  0  0  0  0  0  0  0  0  0  0  0
   -4.4816  -16.8390    8.1363 N   0  0  0  0  0  0  0  0  0  0  0  0
   -6.2448  -17.5689    8.3270 C   0  0  0  0  0  0  0  0  0  0  0  0
   -7.7490  -17.8482    7.9313 C   0  0  0  0  0  0  0  0  0  0  0  0
   -8.6592  -19.1069    8.2029 C   0  0  0  0  0  0  0  0  0  0  0  0
   -8.2878  -20.0008    9.1692 C   0  0  0  0  0  0  0  0  0  0  0  0
   -7.1369  -19.5471    9.8182 C   0  0  0  0  0  0  0  0  0  0  0  0
   -5.9991  -18.5160    9.0828 C   0  0  0  0  0  0  0  0  0  0  0  0
   -4.0286  -18.6795    9.0710 O   0  0  0  0  0  0  0  0  0  0  0  0
   -2.0341  -14.9376   10.2252 C   0  0  0  0  0  0  0  0  0  0  0  0
   -0.6296  -13.9949   11.1676 C   0  0  0  0  0  0  0  0  0  0  0  0
    4.8766   -7.7152   13.5013 H   0  0  0  0  0  0  0  0  0  0  0  0
    6.5105   -6.8787   15.1935 H   0  0  0  0  0  0  0  0  0  0  0  0
    7.5344   -3.4703   15.3150 H   0  0  0  0  0  0  0  0  0  0  0  0
    9.0237   -1.7633   14.9673 H   0  0  0  0  0  0  0  0  0  0  0  0
   10.8982   -5.2216   15.1852 H   0  0  0  0  0  0  0  0  0  0  0  0
    2.9689   -9.4284   11.4767 H   0  0  0  0  0  0  0  0  0  0  0  0
    2.8555  -12.1184   10.2511 H   0  0  0  0  0  0  0  0  0  0  0  0
    1.3846  -11.2717   11.0943 H   0  0  0  0  0  0  0  0  0  0  0  0
    0.9699  -13.7802   12.4125 H   0  0  0  0  0  0  0  0  0  0  0  0
    1.8405  -15.4894    9.9210 H   0  0  0  0  0  0  0  0  0  0  0  0
    1.0773  -15.9069   11.4308 H   0  0  0  0  0  0  0  0  0  0  0  0
    0.2598  -16.9787    9.0731 H   0  0  0  0  0  0  0  0  0  0  0  0
   -0.3873  -16.7839   10.8490 H   0  0  0  0  0  0  0  0  0  0  0  0
   -8.0446  -17.7449    6.9185 H   0  0  0  0  0  0  0  0  0  0  0  0
   -9.5270  -19.2690    7.5769 H   0  0  0  0  0  0  0  0  0  0  0  0
   -8.8716  -20.8427    9.5019 H   0  0  0  0  0  0  0  0  0  0  0  0
   -6.8000  -20.0268   10.7418 H   0  0  0  0  0  0  0  0  0  0  0  0
   -2.6329  -14.3492    9.5519 H   0  0  0  0  0  0  0  0  0  0  0  0
   -2.7451  -15.0793   11.0335 H   0  0  0  0  0  0  0  0  0  0  0  0
   -0.7123  -14.5821   12.0813 H   0  0  0  0  0  0  0  0  0  0  0  0
   -0.7834  -12.9415   11.3219 H   0  0  0  0  0  0  0  0  0  0  0  0
  1  2  2  0
  2  3  1  0
  3  4  2  3
  4  5  1  0
  5  6  1  0
  6  7  2  0
  7  8  1  0
  8  9  1  0
  2 10  1  0
 10 11  1  0
 11 12  1  0
 12 13  1  0
 13 14  1  0
 14 15  1  0
 15 16  1  0
 16 17  2  0
 17 18  1  0
 18 19  2  0
 19 20  1  0
 20 21  2  0
 21 22  1  0
 22 23  2  0
 23 24  1  0
 15 25  1  0
 25 26  1  0
  9  5  2  0
 26 12  1  0
 24 16  1  0
 23 18  1  0
  3 27  1  0
  4 28  1  0
  6 29  1  0
  7 30  1  0
  9 31  1  0
 10 32  1  0
 11 33  1  0
 11 34  1  0
 12 35  1  0
 13 36  1  0
 13 37  1  0
 14 38  1  0
 14 39  1  0
 19 40  1  0
 20 41  1  0
 21 42  1  0
 22 43  1  0
 25 44  1  0
 25 45  1  0
 26 46  1  0
 26 47  1  0
M  END
>  <Energy>  (141) 
1877.960966166434

>  <compound_id>  (141) 
11180

>  <target_id>  (141) 
1

>  <reference_id>  (141) 
2

>  <inspiration_ids>  (141) 
[2, 66]

>  <energy_score>  (141) 
1854.2208658868572

>  <distance_score>  (141) 
5.927595163579007

>  <path>  (141) 
/opt/xchem-fragalysis-2/maxwin/BulkDock/SCRATCH/511014/C11180-P2/C11180-P2.minimised.mol

>  <scratch_subdir>  (141) 
/opt/xchem-fragalysis-2/maxwin/BulkDock/SCRATCH/511014/C11180-P2

>  <fragmenstein_runtime>  (141) 
18.01287531852722

>  <fragmenstein_outcome>  (141) 
too moved

>  <fragmenstein_mode>  (141) 
expansion

>  <fragmenstein_error>  (141) 


$$$$
C11180-P66
     RDKit          3D

 47 50  0  0  0  0  0  0  0  0999 V2000
    4.2198   -7.5810   12.8634 O   0  0  0  0  0  0  0  0  0  0  0  0
    4.7357   -8.3836   13.5559 C   0  0  0  0  0  0  0  0  0  0  0  0
    6.2705   -7.4492   14.6508 C   0  0  0  0  0  0  0  0  0  0  0  0
    7.0473   -6.0676   15.6041 C   0  0  0  0  0  0  0  0  0  0  0  0
    8.2565   -4.4149   15.5272 C   0  0  0  0  0  0  0  0  0  0  0  0
    7.7552   -2.8345   14.9842 C   0  0  0  0  0  0  0  0  0  0  0  0
    8.7018   -1.8517   14.8838 C   0  0  0  0  0  0  0  0  0  0  0  0
   10.3321   -2.3666   15.0612 S   0  0  0  0  0  0  0  0  0  0  0  0
    9.8280   -4.0161   15.1117 C   0  0  0  0  0  0  0  0  0  0  0  0
    4.0683  -10.2201   13.2536 N   0  0  0  0  0  0  0  0  0  0  0  0
    2.7215  -11.0285   11.8339 C   0  0  0  0  0  0  0  0  0  0  0  0
    1.3062  -12.5586   11.2300 C   0  0  0  0  0  0  0  0  0  0  0  0
    0.8403  -14.4735   10.6477 C   0  0  0  0  0  0  0  0  0  0  0  0
   -0.6185  -15.5851    9.7970 C   0  0  0  0  0  0  0  0  0  0  0  0
   -2.2638  -14.9733    9.8055 N   0  0  0  0  0  0  0  0  0  0  0  0
   -3.9055  -14.8795    8.9818 C   0  0  0  0  0  0  0  0  0  0  0  0
   -5.1111  -14.2294    8.7469 N   0  0  0  0  0  0  0  0  0  0  0  0
   -5.8625  -14.1341    7.0982 C   0  0  0  0  0  0  0  0  0  0  0  0
   -7.4586  -13.5854    6.1902 C   0  0  0  0  0  0  0  0  0  0  0  0
   -7.6694  -13.5466    4.6606 C   0  0  0  0  0  0  0  0  0  0  0  0
   -6.7144  -14.2142    3.9092 C   0  0  0  0  0  0  0  0  0  0  0  0
   -5.6963  -14.8692    4.6688 C   0  0  0  0  0  0  0  0  0  0  0  0
   -4.9041  -14.5831    6.2505 C   0  0  0  0  0  0  0  0  0  0  0  0
   -4.0613  -15.4926    7.5217 O   0  0  0  0  0  0  0  0  0  0  0  0
   -1.5100  -14.5396   11.2304 C   0  0  0  0  0  0  0  0  0  0  0  0
   -0.2081  -13.1378   11.8475 C   0  0  0  0  0  0  0  0  0  0  0  0
    6.9076   -7.8499   13.8544 H   0  0  0  0  0  0  0  0  0  0  0  0
    7.9681   -6.5805   15.1897 H   0  0  0  0  0  0  0  0  0  0  0  0
    6.7228   -2.6568   14.6887 H   0  0  0  0  0  0  0  0  0  0  0  0
    8.5191   -0.8485   14.5251 H   0  0  0  0  0  0  0  0  0  0  0  0
   10.6738   -4.6683   15.0908 H   0  0  0  0  0  0  0  0  0  0  0  0
    4.6189  -10.8537   13.8224 H   0  0  0  0  0  0  0  0  0  0  0  0
    2.3796  -10.1995   11.1919 H   0  0  0  0  0  0  0  0  0  0  0  0
    3.4764  -11.3307   11.0720 H   0  0  0  0  0  0  0  0  0  0  0  0
    0.7363  -11.7912   10.7393 H   0  0  0  0  0  0  0  0  0  0  0  0
    1.6554  -14.9748   10.0887 H   0  0  0  0  0  0  0  0  0  0  0  0
    0.9062  -15.0218   11.6112 H   0  0  0  0  0  0  0  0  0  0  0  0
   -0.5445  -16.4668   10.4586 H   0  0  0  0  0  0  0  0  0  0  0  0
   -0.4298  -16.2794    8.9541 H   0  0  0  0  0  0  0  0  0  0  0  0
   -8.3701  -13.1245    6.6610 H   0  0  0  0  0  0  0  0  0  0  0  0
   -8.5527  -13.0540    4.2537 H   0  0  0  0  0  0  0  0  0  0  0  0
   -6.8490  -14.4263    2.8514 H   0  0  0  0  0  0  0  0  0  0  0  0
   -5.4635  -15.8044    4.1132 H   0  0  0  0  0  0  0  0  0  0  0  0
   -0.9506  -15.3468   11.6701 H   0  0  0  0  0  0  0  0  0  0  0  0
   -2.5065  -14.6510   11.6578 H   0  0  0  0  0  0  0  0  0  0  0  0
   -0.6018  -12.1267   11.9735 H   0  0  0  0  0  0  0  0  0  0  0  0
    0.0396  -13.4942   12.8628 H   0  0  0  0  0  0  0  0  0  0  0  0
  1  2  2  0
  2  3  1  0
  3  4  2  3
  4  5  1  0
  5  6  1  0
  6  7  2  0
  7  8  1  0
  8  9  1  0
  2 10  1  0
 10 11  1  0
 11 12  1  0
 12 13  1  0
 13 14  1  0
 14 15  1  0
 15 16  1  0
 16 17  2  0
 17 18  1  0
 18 19  2  0
 19 20  1  0
 20 21  2  0
 21 22  1  0
 22 23  2  0
 23 24  1  0
 15 25  1  0
 25 26  1  0
  9  5  2  0
 26 12  1  0
 24 16  1  0
 23 18  1  0
  3 27  1  0
  4 28  1  0
  6 29  1  0
  7 30  1  0
  9 31  1  0
 10 32  1  0
 11 33  1  0
 11 34  1  0
 12 35  1  0
 13 36  1  0
 13 37  1  0
 14 38  1  0
 14 39  1  0
 19 40  1  0
 20 41  1  0
 21 42  1  0
 22 43  1  0
 25 44  1  0
 25 45  1  0
 26 46  1  0
 26 47  1  0
M  END
>  <Energy>  (142) 
1839.2564142906481

>  <compound_id>  (142) 
11180

>  <target_id>  (142) 
1

>  <reference_id>  (142) 
66

>  <inspiration_ids>  (142) 
[2, 66]

>  <energy_score>  (142) 
1815.516314011077

>  <distance_score>  (142) 
7.98857232692234

>  <path>  (142) 
/opt/xchem-fragalysis-2/maxwin/BulkDock/SCRATCH/511014/C11180-P66/C11180-P66.minimised.mol

>  <scratch_subdir>  (142) 
/opt/xchem-fragalysis-2/maxwin/BulkDock/SCRATCH/511014/C11180-P66

>  <fragmenstein_runtime>  (142) 
22.01506757736206

>  <fragmenstein_outcome>  (142) 
too moved

>  <fragmenstein_mode>  (142) 
expansion

>  <fragmenstein_error>  (142) 


$$$$
C11181-P2
     RDKit          3D

 32 34  0  0  0  0  0  0  0  0999 V2000
   -5.5611  -11.1941    9.6962 C   0  0  0  0  0  0  0  0  0  0  0  0
   -4.5713  -11.7067    8.7253 N   0  0  0  0  0  0  0  0  0  0  0  0
   -2.8082  -11.0587    9.1483 C   0  0  0  0  0  0  0  0  0  0  0  0
   -1.4698   -9.5809    9.1315 C   0  0  0  0  0  0  0  0  0  0  0  0
   -0.9928   -8.5319    8.1483 C   0  0  0  0  0  0  0  0  0  0  0  0
   -0.4713   -7.2963    8.3365 C   0  0  0  0  0  0  0  0  0  0  0  0
    0.5068   -7.3742    9.5761 S   0  0  0  0  0  0  0  0  0  0  0  0
    0.1640   -9.3175    9.5818 C   0  0  0  0  0  0  0  0  0  0  0  0
   -5.0832  -13.4633    8.5867 C   0  0  0  0  0  0  0  0  0  0  0  0
   -6.5301  -14.6335    8.7158 C   0  0  0  0  0  0  0  0  0  0  0  0
   -7.4464  -15.2280    7.9507 N   0  0  0  0  0  0  0  0  0  0  0  0
   -7.6551  -17.1111    7.9712 C   0  0  0  0  0  0  0  0  0  0  0  0
   -8.5886  -18.3517    7.4227 C   0  0  0  0  0  0  0  0  0  0  0  0
   -8.6478  -18.5140    6.0608 F   0  0  0  0  0  0  0  0  0  0  0  0
   -8.9422  -19.6127    8.0011 C   0  0  0  0  0  0  0  0  0  0  0  0
   -8.1808  -19.9937    9.0515 C   0  0  0  0  0  0  0  0  0  0  0  0
   -7.1058  -19.0758    9.3660 C   0  0  0  0  0  0  0  0  0  0  0  0
   -6.6456  -17.6577    8.6379 C   0  0  0  0  0  0  0  0  0  0  0  0
   -6.4999  -16.0254    9.3726 O   0  0  0  0  0  0  0  0  0  0  0  0
   -5.4182  -10.1475    9.9728 H   0  0  0  0  0  0  0  0  0  0  0  0
   -6.5573  -11.2590    9.2448 H   0  0  0  0  0  0  0  0  0  0  0  0
   -5.5834  -11.7909   10.6132 H   0  0  0  0  0  0  0  0  0  0  0  0
   -3.1044  -10.5944   10.0609 H   0  0  0  0  0  0  0  0  0  0  0  0
   -2.5014  -12.0575    9.1087 H   0  0  0  0  0  0  0  0  0  0  0  0
   -1.0893   -9.0501    7.2569 H   0  0  0  0  0  0  0  0  0  0  0  0
   -0.4100   -6.4218    7.7192 H   0  0  0  0  0  0  0  0  0  0  0  0
    0.7714   -9.8412   10.3270 H   0  0  0  0  0  0  0  0  0  0  0  0
   -4.3558  -13.9324    9.2266 H   0  0  0  0  0  0  0  0  0  0  0  0
   -4.9542  -13.5536    7.5089 H   0  0  0  0  0  0  0  0  0  0  0  0
   -9.6282  -20.2823    7.5014 H   0  0  0  0  0  0  0  0  0  0  0  0
   -8.3338  -20.8950    9.6316 H   0  0  0  0  0  0  0  0  0  0  0  0
   -6.7664  -19.2503   10.4059 H   0  0  0  0  0  0  0  0  0  0  0  0
  1  2  1  0
  2  3  1  0
  3  4  1  0
  4  5  1  0
  5  6  2  0
  6  7  1  0
  7  8  1  0
  2  9  1  0
  9 10  1  0
 10 11  2  0
 11 12  1  0
 12 13  2  0
 13 14  1  0
 13 15  1  0
 15 16  2  0
 16 17  1  0
 17 18  2  0
 18 19  1  0
  8  4  2  0
 19 10  1  0
 18 12  1  0
  1 20  1  0
  1 21  1  0
  1 22  1  0
  3 23  1  0
  3 24  1  0
  5 25  1  0
  6 26  1  0
  8 27  1  0
  9 28  1  0
  9 29  1  0
 15 30  1  0
 16 31  1  0
 17 32  1  0
M  END
>  <Energy>  (143) 
787.73837210522458

>  <compound_id>  (143) 
11181

>  <target_id>  (143) 
1

>  <reference_id>  (143) 
2

>  <inspiration_ids>  (143) 
[2, 66]

>  <energy_score>  (143) 
677.4488101954091

>  <distance_score>  (143) 
11.902989565647392

>  <path>  (143) 
/opt/xchem-fragalysis-2/maxwin/BulkDock/SCRATCH/511014/C11181-P2/C11181-P2.minimised.mol

>  <scratch_subdir>  (143) 
/opt/xchem-fragalysis-2/maxwin/BulkDock/SCRATCH/511014/C11181-P2

>  <fragmenstein_runtime>  (143) 
9.358038425445557

>  <fragmenstein_outcome>  (143) 
too moved

>  <fragmenstein_mode>  (143) 
expansion

>  <fragmenstein_error>  (143) 


$$$$
C11181-P66
     RDKit          3D

 32 34  0  0  0  0  0  0  0  0999 V2000
   -4.6485   -7.4486   15.0239 C   0  0  0  0  0  0  0  0  0  0  0  0
   -3.7263   -8.5644   14.8138 N   0  0  0  0  0  0  0  0  0  0  0  0
   -2.4905   -8.4405   15.6981 C   0  0  0  0  0  0  0  0  0  0  0  0
   -1.5272   -7.2353   15.6186 C   0  0  0  0  0  0  0  0  0  0  0  0
   -0.4873   -7.0297   16.6214 C   0  0  0  0  0  0  0  0  0  0  0  0
    0.2765   -5.8989   16.4272 C   0  0  0  0  0  0  0  0  0  0  0  0
   -0.2398   -5.0361   15.0536 S   0  0  0  0  0  0  0  0  0  0  0  0
   -1.4185   -6.2352   14.6685 C   0  0  0  0  0  0  0  0  0  0  0  0
   -4.4786   -9.8783   15.1737 C   0  0  0  0  0  0  0  0  0  0  0  0
   -5.6114  -10.5379   14.3418 C   0  0  0  0  0  0  0  0  0  0  0  0
   -6.5556  -11.3348   14.8372 N   0  0  0  0  0  0  0  0  0  0  0  0
   -7.3315  -11.6872   13.7545 C   0  0  0  0  0  0  0  0  0  0  0  0
   -8.5423  -12.3880   13.6463 C   0  0  0  0  0  0  0  0  0  0  0  0
   -9.1440  -12.9051   14.7263 F   0  0  0  0  0  0  0  0  0  0  0  0
   -9.1639  -12.4900   12.3985 C   0  0  0  0  0  0  0  0  0  0  0  0
   -8.5475  -11.9668   11.2544 C   0  0  0  0  0  0  0  0  0  0  0  0
   -7.3031  -11.3242   11.3249 C   0  0  0  0  0  0  0  0  0  0  0  0
   -6.7683  -11.1689   12.6024 C   0  0  0  0  0  0  0  0  0  0  0  0
   -5.6666  -10.4350   12.9658 O   0  0  0  0  0  0  0  0  0  0  0  0
   -4.2051   -6.4997   14.7110 H   0  0  0  0  0  0  0  0  0  0  0  0
   -4.9541   -7.3536   16.0720 H   0  0  0  0  0  0  0  0  0  0  0  0
   -5.5495   -7.5760   14.4136 H   0  0  0  0  0  0  0  0  0  0  0  0
   -1.8781   -9.3296   15.5056 H   0  0  0  0  0  0  0  0  0  0  0  0
   -2.8216   -8.5088   16.7442 H   0  0  0  0  0  0  0  0  0  0  0  0
   -0.3327   -7.6961   17.4626 H   0  0  0  0  0  0  0  0  0  0  0  0
    1.0881   -5.5316   17.0401 H   0  0  0  0  0  0  0  0  0  0  0  0
   -2.0129   -6.1200   13.7726 H   0  0  0  0  0  0  0  0  0  0  0  0
   -3.7342  -10.6567   15.3573 H   0  0  0  0  0  0  0  0  0  0  0  0
   -4.9200   -9.7110   16.1684 H   0  0  0  0  0  0  0  0  0  0  0  0
  -10.1256  -12.9943   12.3274 H   0  0  0  0  0  0  0  0  0  0  0  0
   -9.0556  -12.0493   10.2956 H   0  0  0  0  0  0  0  0  0  0  0  0
   -6.8197  -10.8844   10.4604 H   0  0  0  0  0  0  0  0  0  0  0  0
  1  2  1  0
  2  3  1  0
  3  4  1  0
  4  5  1  0
  5  6  2  0
  6  7  1  0
  7  8  1  0
  2  9  1  0
  9 10  1  0
 10 11  2  0
 11 12  1  0
 12 13  2  0
 13 14  1  0
 13 15  1  0
 15 16  2  0
 16 17  1  0
 17 18  2  0
 18 19  1  0
  8  4  2  0
 19 10  1  0
 18 12  1  0
  1 20  1  0
  1 21  1  0
  1 22  1  0
  3 23  1  0
  3 24  1  0
  5 25  1  0
  6 26  1  0
  8 27  1  0
  9 28  1  0
  9 29  1  0
 15 30  1  0
 16 31  1  0
 17 32  1  0
M  END
>  <Energy>  (144) 
82.667719785780918

>  <compound_id>  (144) 
11181

>  <target_id>  (144) 
1

>  <reference_id>  (144) 
66

>  <inspiration_ids>  (144) 
[2, 66]

>  <energy_score>  (144) 
-27.621842124033805

>  <distance_score>  (144) 
13.7784105904702

>  <path>  (144) 
/opt/xchem-fragalysis-2/maxwin/BulkDock/SCRATCH/511014/C11181-P66/C11181-P66.minimised.mol

>  <scratch_subdir>  (144) 
/opt/xchem-fragalysis-2/maxwin/BulkDock/SCRATCH/511014/C11181-P66

>  <fragmenstein_runtime>  (144) 
9.885456323623657

>  <fragmenstein_outcome>  (144) 
too moved

>  <fragmenstein_mode>  (144) 
expansion

>  <fragmenstein_error>  (144) 


$$$$
C11182-P2
     RDKit          3D

 37 39  0  0  0  0  0  0  0  0999 V2000
    2.9080  -12.7721   18.9818 C   0  0  0  0  0  0  0  0  0  0  0  0
    2.0625  -12.0253   18.0536 N   0  0  0  0  0  0  0  0  0  0  0  0
    1.9649  -10.6238   18.4506 C   0  0  0  0  0  0  0  0  0  0  0  0
    2.3941  -12.2229   16.6139 C   0  0  0  0  0  0  0  0  0  0  0  0
    1.9111  -13.7399   16.1609 C   0  0  0  0  0  0  0  0  0  0  0  0
    1.0431  -13.8491   14.9268 N   0  0  0  0  0  0  0  0  0  0  0  0
   -0.0455  -14.6504   14.8285 C   0  0  0  0  0  0  0  0  0  0  0  0
   -1.1684  -14.3256   14.2209 N   0  0  0  0  0  0  0  0  0  0  0  0
   -2.0722  -15.2273   14.7190 C   0  0  0  0  0  0  0  0  0  0  0  0
   -3.4661  -15.2182   14.7364 C   0  0  0  0  0  0  0  0  0  0  0  0
   -4.1768  -14.2548   14.1380 F   0  0  0  0  0  0  0  0  0  0  0  0
   -4.1206  -16.1590   15.5144 C   0  0  0  0  0  0  0  0  0  0  0  0
   -3.4152  -17.1892   16.1510 C   0  0  0  0  0  0  0  0  0  0  0  0
   -2.0214  -17.2759   16.0718 C   0  0  0  0  0  0  0  0  0  0  0  0
   -1.4048  -16.2191   15.4139 C   0  0  0  0  0  0  0  0  0  0  0  0
   -0.0785  -15.8708   15.4515 O   0  0  0  0  0  0  0  0  0  0  0  0
    3.8440  -11.7284   16.3158 C   0  0  0  0  0  0  0  0  0  0  0  0
    4.1713  -10.3735   15.8966 C   0  0  0  0  0  0  0  0  0  0  0  0
    5.5110  -10.1701   15.6508 C   0  0  0  0  0  0  0  0  0  0  0  0
    6.4315  -11.5553   16.0157 S   0  0  0  0  0  0  0  0  0  0  0  0
    5.0229  -12.4515   16.4172 C   0  0  0  0  0  0  0  0  0  0  0  0
    2.9871  -13.8268   18.6991 H   0  0  0  0  0  0  0  0  0  0  0  0
    3.9187  -12.3583   19.0619 H   0  0  0  0  0  0  0  0  0  0  0  0
    2.4654  -12.7563   19.9846 H   0  0  0  0  0  0  0  0  0  0  0  0
    1.5269  -10.5458   19.4524 H   0  0  0  0  0  0  0  0  0  0  0  0
    1.2977  -10.0709   17.7806 H   0  0  0  0  0  0  0  0  0  0  0  0
    2.9358  -10.1184   18.4731 H   0  0  0  0  0  0  0  0  0  0  0  0
    1.7218  -11.5678   16.0562 H   0  0  0  0  0  0  0  0  0  0  0  0
    2.7892  -14.3818   16.0459 H   0  0  0  0  0  0  0  0  0  0  0  0
    1.3239  -14.1569   16.9893 H   0  0  0  0  0  0  0  0  0  0  0  0
    0.8847  -12.9509   14.4878 H   0  0  0  0  0  0  0  0  0  0  0  0
   -5.1918  -16.0429   15.6207 H   0  0  0  0  0  0  0  0  0  0  0  0
   -3.9508  -17.9171   16.7547 H   0  0  0  0  0  0  0  0  0  0  0  0
   -1.4525  -18.0292   16.6021 H   0  0  0  0  0  0  0  0  0  0  0  0
    3.4384   -9.5924   15.7518 H   0  0  0  0  0  0  0  0  0  0  0  0
    5.9931   -9.2783   15.2742 H   0  0  0  0  0  0  0  0  0  0  0  0
    5.1374  -13.4850   16.7132 H   0  0  0  0  0  0  0  0  0  0  0  0
  1  2  1  0
  2  3  1  0
  2  4  1  0
  4  5  1  0
  5  6  1  0
  6  7  1  0
  7  8  2  0
  8  9  1  0
  9 10  2  0
 10 11  1  0
 10 12  1  0
 12 13  2  0
 13 14  1  0
 14 15  2  0
 15 16  1  0
  4 17  1  0
 17 18  1  0
 18 19  2  0
 19 20  1  0
 20 21  1  0
 16  7  1  0
 21 17  2  0
 15  9  1  0
  1 22  1  0
  1 23  1  0
  1 24  1  0
  3 25  1  0
  3 26  1  0
  3 27  1  0
  4 28  1  0
  5 29  1  0
  5 30  1  0
  6 31  1  0
 12 32  1  0
 13 33  1  0
 14 34  1  0
 18 35  1  0
 19 36  1  0
 21 37  1  0
M  END
>  <Energy>  (145) 
48.012903345875699

>  <compound_id>  (145) 
11182

>  <target_id>  (145) 
1

>  <reference_id>  (145) 
2

>  <inspiration_ids>  (145) 
[2, 66]

>  <energy_score>  (145) 
-54.26157774098053

>  <distance_score>  (145) 
12.737289294941716

>  <path>  (145) 
/opt/xchem-fragalysis-2/maxwin/BulkDock/SCRATCH/511014/C11182-P2/C11182-P2.minimised.mol

>  <scratch_subdir>  (145) 
/opt/xchem-fragalysis-2/maxwin/BulkDock/SCRATCH/511014/C11182-P2

>  <fragmenstein_runtime>  (145) 
18.811360597610474

>  <fragmenstein_outcome>  (145) 
too moved

>  <fragmenstein_mode>  (145) 
expansion

>  <fragmenstein_error>  (145) 


$$$$
C11182-P66
     RDKit          3D

 37 39  0  0  0  0  0  0  0  0999 V2000
    2.7367  -15.7272   16.6853 C   0  0  0  0  0  0  0  0  0  0  0  0
    3.3901  -14.4176   16.7334 N   0  0  0  0  0  0  0  0  0  0  0  0
    4.2299  -14.3814   17.9449 C   0  0  0  0  0  0  0  0  0  0  0  0
    2.4372  -13.2660   16.6930 C   0  0  0  0  0  0  0  0  0  0  0  0
    0.9434  -13.5057   15.9700 C   0  0  0  0  0  0  0  0  0  0  0  0
    0.7695  -14.1986   14.6568 N   0  0  0  0  0  0  0  0  0  0  0  0
    0.0723  -15.3132   14.3039 C   0  0  0  0  0  0  0  0  0  0  0  0
    0.1402  -15.8924   13.1197 N   0  0  0  0  0  0  0  0  0  0  0  0
   -0.4655  -17.1169   13.2895 C   0  0  0  0  0  0  0  0  0  0  0  0
   -0.5329  -18.2615   12.4787 C   0  0  0  0  0  0  0  0  0  0  0  0
    0.0437  -18.2863   11.2693 F   0  0  0  0  0  0  0  0  0  0  0  0
   -1.1847  -19.4044   12.9578 C   0  0  0  0  0  0  0  0  0  0  0  0
   -1.8137  -19.3952   14.2073 C   0  0  0  0  0  0  0  0  0  0  0  0
   -1.7742  -18.2567   15.0307 C   0  0  0  0  0  0  0  0  0  0  0  0
   -1.0567  -17.1614   14.5414 C   0  0  0  0  0  0  0  0  0  0  0  0
   -0.7377  -15.9845   15.1918 O   0  0  0  0  0  0  0  0  0  0  0  0
    3.2550  -11.9088   16.5096 C   0  0  0  0  0  0  0  0  0  0  0  0
    4.5765  -11.7676   15.9017 C   0  0  0  0  0  0  0  0  0  0  0  0
    5.1042  -10.4942   15.9517 C   0  0  0  0  0  0  0  0  0  0  0  0
    4.0945   -9.4426   16.8298 S   0  0  0  0  0  0  0  0  0  0  0  0
    2.9287  -10.6846   17.0833 C   0  0  0  0  0  0  0  0  0  0  0  0
    1.9492  -15.8285   17.4402 H   0  0  0  0  0  0  0  0  0  0  0  0
    3.4635  -16.5321   16.8508 H   0  0  0  0  0  0  0  0  0  0  0  0
    2.3242  -15.9300   15.6974 H   0  0  0  0  0  0  0  0  0  0  0  0
    3.6351  -14.5097   18.8572 H   0  0  0  0  0  0  0  0  0  0  0  0
    4.9785  -15.1818   17.9112 H   0  0  0  0  0  0  0  0  0  0  0  0
    4.7967  -13.4513   18.0398 H   0  0  0  0  0  0  0  0  0  0  0  0
    2.0932  -13.1510   17.7369 H   0  0  0  0  0  0  0  0  0  0  0  0
    0.3399  -14.0528   16.7060 H   0  0  0  0  0  0  0  0  0  0  0  0
    0.4847  -12.5155   15.8741 H   0  0  0  0  0  0  0  0  0  0  0  0
    1.4010  -13.8763   13.9403 H   0  0  0  0  0  0  0  0  0  0  0  0
   -1.2081  -20.2953   12.3397 H   0  0  0  0  0  0  0  0  0  0  0  0
   -2.3228  -20.2979   14.5429 H   0  0  0  0  0  0  0  0  0  0  0  0
   -2.2212  -18.2479   16.0174 H   0  0  0  0  0  0  0  0  0  0  0  0
    5.1044  -12.5911   15.4327 H   0  0  0  0  0  0  0  0  0  0  0  0
    6.0435  -10.1536   15.5326 H   0  0  0  0  0  0  0  0  0  0  0  0
    2.0498  -10.4511   17.6678 H   0  0  0  0  0  0  0  0  0  0  0  0
  1  2  1  0
  2  3  1  0
  2  4  1  0
  4  5  1  0
  5  6  1  0
  6  7  1  0
  7  8  2  0
  8  9  1  0
  9 10  2  0
 10 11  1  0
 10 12  1  0
 12 13  2  0
 13 14  1  0
 14 15  2  0
 15 16  1  0
  4 17  1  0
 17 18  1  0
 18 19  2  0
 19 20  1  0
 20 21  1  0
 16  7  1  0
 21 17  2  0
 15  9  1  0
  1 22  1  0
  1 23  1  0
  1 24  1  0
  3 25  1  0
  3 26  1  0
  3 27  1  0
  4 28  1  0
  5 29  1  0
  5 30  1  0
  6 31  1  0
 12 32  1  0
 13 33  1  0
 14 34  1  0
 18 35  1  0
 19 36  1  0
 21 37  1  0
M  END
>  <Energy>  (146) 
56.244968868543083

>  <compound_id>  (146) 
11182

>  <target_id>  (146) 
1

>  <reference_id>  (146) 
66

>  <inspiration_ids>  (146) 
[2, 66]

>  <energy_score>  (146) 
-46.02951221831265

>  <distance_score>  (146) 
12.624579791797277

>  <path>  (146) 
/opt/xchem-fragalysis-2/maxwin/BulkDock/SCRATCH/511014/C11182-P66/C11182-P66.minimised.mol

>  <scratch_subdir>  (146) 
/opt/xchem-fragalysis-2/maxwin/BulkDock/SCRATCH/511014/C11182-P66

>  <fragmenstein_runtime>  (146) 
20.48087501525879

>  <fragmenstein_outcome>  (146) 
too moved

>  <fragmenstein_mode>  (146) 
expansion

>  <fragmenstein_error>  (146) 


$$$$
C11183-P2
     RDKit          3D

 38 40  0  0  0  0  0  0  0  0999 V2000
    0.1652  -14.5910   12.5480 C   0  0  0  0  0  0  0  0  0  0  0  0
    0.0458  -14.4354   11.0851 C   0  0  0  0  0  0  0  0  0  0  0  0
    1.0130  -15.7153   10.4249 C   0  0  0  0  0  0  0  0  0  0  0  0
    1.0614  -12.9765   11.1947 N   0  0  0  0  0  0  0  0  0  0  0  0
    0.8067  -11.6830   11.7481 C   0  0  0  0  0  0  0  0  0  0  0  0
   -0.1894  -11.2230   12.1985 O   0  0  0  0  0  0  0  0  0  0  0  0
    2.6097  -10.8279   11.7389 C   0  0  0  0  0  0  0  0  0  0  0  0
    2.3079   -9.8810   10.7933 O   0  0  0  0  0  0  0  0  0  0  0  0
    3.8861  -10.3698   13.2950 C   0  0  0  0  0  0  0  0  0  0  0  0
    4.3465   -9.0081   14.0796 C   0  0  0  0  0  0  0  0  0  0  0  0
    5.0893   -9.0774   15.2309 C   0  0  0  0  0  0  0  0  0  0  0  0
    5.6781  -10.6285   15.4156 S   0  0  0  0  0  0  0  0  0  0  0  0
    4.9719  -11.1262   13.9224 C   0  0  0  0  0  0  0  0  0  0  0  0
   -1.3498  -15.2241   10.7842 C   0  0  0  0  0  0  0  0  0  0  0  0
   -2.1392  -15.3190    9.7210 N   0  0  0  0  0  0  0  0  0  0  0  0
   -2.0487  -16.6536    9.3259 C   0  0  0  0  0  0  0  0  0  0  0  0
   -2.1683  -17.2588    8.0805 C   0  0  0  0  0  0  0  0  0  0  0  0
   -1.7121  -18.5685    7.9520 C   0  0  0  0  0  0  0  0  0  0  0  0
   -1.3554  -19.1046    6.3469 Cl  0  0  0  0  0  0  0  0  0  0  0  0
   -1.3707  -19.3353    9.0699 C   0  0  0  0  0  0  0  0  0  0  0  0
   -1.3522  -18.7759   10.3481 C   0  0  0  0  0  0  0  0  0  0  0  0
   -1.5895  -17.4110   10.3677 C   0  0  0  0  0  0  0  0  0  0  0  0
   -1.2934  -16.5311   11.3612 O   0  0  0  0  0  0  0  0  0  0  0  0
    1.1508  -14.3553   12.8490 H   0  0  0  0  0  0  0  0  0  0  0  0
    0.0012  -15.6260   12.7590 H   0  0  0  0  0  0  0  0  0  0  0  0
   -0.3687  -13.8902   13.1705 H   0  0  0  0  0  0  0  0  0  0  0  0
    1.9781  -15.4563    9.9894 H   0  0  0  0  0  0  0  0  0  0  0  0
    0.5452  -16.2006    9.5678 H   0  0  0  0  0  0  0  0  0  0  0  0
    1.1447  -16.5281   11.1477 H   0  0  0  0  0  0  0  0  0  0  0  0
    1.9884  -12.9920   10.8309 H   0  0  0  0  0  0  0  0  0  0  0  0
    3.2248  -11.4599   11.0645 H   0  0  0  0  0  0  0  0  0  0  0  0
    1.6517   -9.3217   11.2545 H   0  0  0  0  0  0  0  0  0  0  0  0
    4.1610   -8.0200   13.6935 H   0  0  0  0  0  0  0  0  0  0  0  0
    5.3810   -8.2643   15.8767 H   0  0  0  0  0  0  0  0  0  0  0  0
    5.3862  -12.0730   13.6314 H   0  0  0  0  0  0  0  0  0  0  0  0
   -2.4025  -16.6751    7.2113 H   0  0  0  0  0  0  0  0  0  0  0  0
   -1.0132  -20.3513    8.9641 H   0  0  0  0  0  0  0  0  0  0  0  0
   -1.0184  -19.3184   11.2236 H   0  0  0  0  0  0  0  0  0  0  0  0
  1  2  1  0
  2  3  1  0
  2  4  1  0
  4  5  1  0
  5  6  2  0
  5  7  1  0
  7  8  1  0
  7  9  1  0
  9 10  1  0
 10 11  2  0
 11 12  1  0
 12 13  1  0
  2 14  1  0
 14 15  2  0
 15 16  1  0
 16 17  2  0
 17 18  1  0
 18 19  1  0
 18 20  2  0
 20 21  1  0
 21 22  2  0
 22 23  1  0
 13  9  2  0
 23 14  1  0
 22 16  1  0
  1 24  1  0
  1 25  1  0
  1 26  1  0
  3 27  1  0
  3 28  1  0
  3 29  1  0
  4 30  1  0
  7 31  1  0
  8 32  1  0
 10 33  1  0
 11 34  1  0
 13 35  1  0
 17 36  1  0
 20 37  1  0
 21 38  1  0
M  END
>  <Energy>  (147) 
415.11262941043395

>  <compound_id>  (147) 
11183

>  <target_id>  (147) 
1

>  <reference_id>  (147) 
2

>  <inspiration_ids>  (147) 
[2, 66]

>  <energy_score>  (147) 
305.32686831962303

>  <distance_score>  (147) 
10.981023509539598

>  <path>  (147) 
/opt/xchem-fragalysis-2/maxwin/BulkDock/SCRATCH/511014/C11183-P2/C11183-P2.minimised.mol

>  <scratch_subdir>  (147) 
/opt/xchem-fragalysis-2/maxwin/BulkDock/SCRATCH/511014/C11183-P2

>  <fragmenstein_runtime>  (147) 
16.488056659698486

>  <fragmenstein_outcome>  (147) 
too moved

>  <fragmenstein_mode>  (147) 
expansion

>  <fragmenstein_error>  (147) 


$$$$
C11183-P66
     RDKit          3D

 38 40  0  0  0  0  0  0  0  0999 V2000
    0.1137  -16.1139   11.7885 C   0  0  0  0  0  0  0  0  0  0  0  0
    0.0847  -15.3070   10.4780 C   0  0  0  0  0  0  0  0  0  0  0  0
    1.2018  -16.1135    9.6656 C   0  0  0  0  0  0  0  0  0  0  0  0
    0.6971  -13.5547   11.1123 N   0  0  0  0  0  0  0  0  0  0  0  0
    2.2713  -12.6489   10.8182 C   0  0  0  0  0  0  0  0  0  0  0  0
    3.2020  -12.9959   10.0644 O   0  0  0  0  0  0  0  0  0  0  0  0
    2.7747  -11.0292   11.7802 C   0  0  0  0  0  0  0  0  0  0  0  0
    3.2141  -10.4046   10.5886 O   0  0  0  0  0  0  0  0  0  0  0  0
    4.0526  -10.5804   13.3282 C   0  0  0  0  0  0  0  0  0  0  0  0
    5.3264  -11.3874   13.8875 C   0  0  0  0  0  0  0  0  0  0  0  0
    5.9821  -10.9513   15.0210 C   0  0  0  0  0  0  0  0  0  0  0  0
    5.2513   -9.5707   15.6154 S   0  0  0  0  0  0  0  0  0  0  0  0
    4.3654   -9.4302   14.1623 C   0  0  0  0  0  0  0  0  0  0  0  0
   -1.6663  -15.9268    9.7832 C   0  0  0  0  0  0  0  0  0  0  0  0
   -2.7790  -15.2385    9.5646 N   0  0  0  0  0  0  0  0  0  0  0  0
   -3.9885  -15.8615    8.5563 C   0  0  0  0  0  0  0  0  0  0  0  0
   -5.6946  -15.2513    8.8514 C   0  0  0  0  0  0  0  0  0  0  0  0
   -7.1017  -16.3260    8.5548 C   0  0  0  0  0  0  0  0  0  0  0  0
   -8.0722  -18.3394    8.1353 Cl  0  0  0  0  0  0  0  0  0  0  0  0
   -6.5539  -17.5461    8.3060 C   0  0  0  0  0  0  0  0  0  0  0  0
   -5.7078  -18.1401    9.1525 C   0  0  0  0  0  0  0  0  0  0  0  0
   -3.8981  -17.5442    8.7193 C   0  0  0  0  0  0  0  0  0  0  0  0
   -2.3237  -17.4749    9.4953 O   0  0  0  0  0  0  0  0  0  0  0  0
   -0.7393  -16.7870   11.8870 H   0  0  0  0  0  0  0  0  0  0  0  0
    0.1802  -15.3949   12.5932 H   0  0  0  0  0  0  0  0  0  0  0  0
    0.9677  -16.7851   11.8994 H   0  0  0  0  0  0  0  0  0  0  0  0
    0.7701  -17.0509    9.2930 H   0  0  0  0  0  0  0  0  0  0  0  0
    1.6585  -15.6187    8.8104 H   0  0  0  0  0  0  0  0  0  0  0  0
    2.0645  -16.3926   10.2717 H   0  0  0  0  0  0  0  0  0  0  0  0
    0.0936  -13.0009   11.7064 H   0  0  0  0  0  0  0  0  0  0  0  0
    1.7075  -10.8805   11.9799 H   0  0  0  0  0  0  0  0  0  0  0  0
    3.6136  -11.1000   10.0337 H   0  0  0  0  0  0  0  0  0  0  0  0
    5.6970  -12.3054   13.4739 H   0  0  0  0  0  0  0  0  0  0  0  0
    6.8268  -11.4066   15.5176 H   0  0  0  0  0  0  0  0  0  0  0  0
    4.1566   -8.3944   13.9989 H   0  0  0  0  0  0  0  0  0  0  0  0
   -5.8222  -14.1781    8.9666 H   0  0  0  0  0  0  0  0  0  0  0  0
   -6.4975  -17.8698    7.3474 H   0  0  0  0  0  0  0  0  0  0  0  0
   -6.3364  -18.7042    9.8999 H   0  0  0  0  0  0  0  0  0  0  0  0
  1  2  1  0
  2  3  1  0
  2  4  1  0
  4  5  1  0
  5  6  2  0
  5  7  1  0
  7  8  1  0
  7  9  1  0
  9 10  1  0
 10 11  2  0
 11 12  1  0
 12 13  1  0
  2 14  1  0
 14 15  2  0
 15 16  1  0
 16 17  2  0
 17 18  1  0
 18 19  1  0
 18 20  2  0
 20 21  1  0
 21 22  2  0
 22 23  1  0
 13  9  2  0
 23 14  1  0
 22 16  1  0
  1 24  1  0
  1 25  1  0
  1 26  1  0
  3 27  1  0
  3 28  1  0
  3 29  1  0
  4 30  1  0
  7 31  1  0
  8 32  1  0
 10 33  1  0
 11 34  1  0
 13 35  1  0
 17 36  1  0
 20 37  1  0
 21 38  1  0
M  END
>  <Energy>  (148) 
1170.9514636873926

>  <compound_id>  (148) 
11183

>  <target_id>  (148) 
1

>  <reference_id>  (148) 
66

>  <inspiration_ids>  (148) 
[2, 66]

>  <energy_score>  (148) 
1061.1657025965924

>  <distance_score>  (148) 
10.162859984548271

>  <path>  (148) 
/opt/xchem-fragalysis-2/maxwin/BulkDock/SCRATCH/511014/C11183-P66/C11183-P66.minimised.mol

>  <scratch_subdir>  (148) 
/opt/xchem-fragalysis-2/maxwin/BulkDock/SCRATCH/511014/C11183-P66

>  <fragmenstein_runtime>  (148) 
18.744020700454712

>  <fragmenstein_outcome>  (148) 
too moved

>  <fragmenstein_mode>  (148) 
expansion

>  <fragmenstein_error>  (148) 


$$$$
C11184-P2
     RDKit          3D

 39 41  0  0  0  0  0  0  0  0999 V2000
   -9.1110  -21.2413    9.6394 C   0  0  0  0  0  0  0  0  0  0  0  0
   -8.1096  -20.5029   10.4205 C   0  0  0  0  0  0  0  0  0  0  0  0
   -7.9358  -20.2464   11.6831 N   0  0  0  0  0  0  0  0  0  0  0  0
   -6.6180  -19.8709   11.7682 C   0  0  0  0  0  0  0  0  0  0  0  0
   -5.5346  -19.3963   12.4148 C   0  0  0  0  0  0  0  0  0  0  0  0
   -3.9440  -19.4953   11.7262 C   0  0  0  0  0  0  0  0  0  0  0  0
   -3.1713  -19.1114   10.2385 C   0  0  0  0  0  0  0  0  0  0  0  0
   -2.4080  -17.1166    9.2195 S   0  0  0  0  0  0  0  0  0  0  0  0
   -1.2169  -17.3784    8.4060 O   0  0  0  0  0  0  0  0  0  0  0  0
   -3.4597  -16.7220    8.3051 O   0  0  0  0  0  0  0  0  0  0  0  0
   -1.8202  -15.1883   10.3170 N   0  0  0  0  0  0  0  0  0  0  0  0
   -0.5788  -14.0833   11.4519 C   0  0  0  0  0  0  0  0  0  0  0  0
   -0.3445  -12.1274   12.0653 C   0  0  0  0  0  0  0  0  0  0  0  0
   -1.1714  -10.2587   13.3896 S   0  0  0  0  0  0  0  0  0  0  0  0
   -0.7218   -7.8932   13.6280 C   0  0  0  0  0  0  0  0  0  0  0  0
   -0.1122   -6.9203   15.0609 C   0  0  0  0  0  0  0  0  0  0  0  0
    0.0106   -5.4391   14.9302 C   0  0  0  0  0  0  0  0  0  0  0  0
    0.7080   -4.8296   15.9510 C   0  0  0  0  0  0  0  0  0  0  0  0
    1.1040   -5.9278   17.1872 S   0  0  0  0  0  0  0  0  0  0  0  0
    0.3257   -7.2250   16.3584 C   0  0  0  0  0  0  0  0  0  0  0  0
   -4.1064  -19.9274    9.8898 C   0  0  0  0  0  0  0  0  0  0  0  0
   -5.9959  -19.9036   10.6242 C   0  0  0  0  0  0  0  0  0  0  0  0
   -7.1656  -19.8644    9.7030 O   0  0  0  0  0  0  0  0  0  0  0  0
   -9.8481  -20.5589    9.2088 H   0  0  0  0  0  0  0  0  0  0  0  0
   -8.6386  -21.7830    8.8150 H   0  0  0  0  0  0  0  0  0  0  0  0
   -9.6093  -21.9861   10.2649 H   0  0  0  0  0  0  0  0  0  0  0  0
   -5.9117  -18.5405   12.9541 H   0  0  0  0  0  0  0  0  0  0  0  0
   -3.5424  -20.5059   12.0429 H   0  0  0  0  0  0  0  0  0  0  0  0
   -0.9169  -15.6454   10.0468 H   0  0  0  0  0  0  0  0  0  0  0  0
   -0.5014  -14.6508   12.3765 H   0  0  0  0  0  0  0  0  0  0  0  0
    0.3799  -14.3437   11.0184 H   0  0  0  0  0  0  0  0  0  0  0  0
    0.2889  -12.4418   12.8938 H   0  0  0  0  0  0  0  0  0  0  0  0
    0.2715  -11.6117   11.3364 H   0  0  0  0  0  0  0  0  0  0  0  0
   -1.3660   -7.1116   13.2912 H   0  0  0  0  0  0  0  0  0  0  0  0
   -0.1124   -7.7468   12.7402 H   0  0  0  0  0  0  0  0  0  0  0  0
   -0.3488   -4.8865   14.0727 H   0  0  0  0  0  0  0  0  0  0  0  0
    0.9765   -3.7856   16.0391 H   0  0  0  0  0  0  0  0  0  0  0  0
    0.2812   -8.1566   16.8883 H   0  0  0  0  0  0  0  0  0  0  0  0
   -3.9075  -19.9857    8.7879 H   0  0  0  0  0  0  0  0  0  0  0  0
  1  2  1  0
  2  3  2  0
  3  4  1  0
  4  5  2  0
  5  6  1  0
  6  7  2  0
  7  8  1  0
  8  9  2  0
  8 10  2  0
  8 11  1  0
 11 12  1  0
 12 13  1  0
 13 14  1  0
 14 15  1  0
 15 16  1  0
 16 17  1  0
 17 18  2  0
 18 19  1  0
 19 20  1  0
  7 21  1  0
 21 22  2  0
 22 23  1  0
 23  2  1  0
 22  4  1  0
 20 16  2  0
  1 24  1  0
  1 25  1  0
  1 26  1  0
  5 27  1  0
  6 28  1  0
 11 29  1  0
 12 30  1  0
 12 31  1  0
 13 32  1  0
 13 33  1  0
 15 34  1  0
 15 35  1  0
 17 36  1  0
 18 37  1  0
 20 38  1  0
 21 39  1  0
M  END
>  <Energy>  (149) 
1048.3695491966926

>  <compound_id>  (149) 
11184

>  <target_id>  (149) 
1

>  <reference_id>  (149) 
2

>  <inspiration_ids>  (149) 
[2, 66]

>  <energy_score>  (149) 
1028.0939065288778

>  <distance_score>  (149) 
9.729755837606733

>  <path>  (149) 
/opt/xchem-fragalysis-2/maxwin/BulkDock/SCRATCH/511014/C11184-P2/C11184-P2.minimised.mol

>  <scratch_subdir>  (149) 
/opt/xchem-fragalysis-2/maxwin/BulkDock/SCRATCH/511014/C11184-P2

>  <fragmenstein_runtime>  (149) 
10.859302520751953

>  <fragmenstein_outcome>  (149) 
too moved

>  <fragmenstein_mode>  (149) 
expansion

>  <fragmenstein_error>  (149) 


$$$$
C11184-P66
     RDKit          3D

 39 41  0  0  0  0  0  0  0  0999 V2000
   -8.0829  -20.1536   11.4479 C   0  0  0  0  0  0  0  0  0  0  0  0
   -6.6478  -19.2892   11.9506 C   0  0  0  0  0  0  0  0  0  0  0  0
   -6.7253  -18.0052   12.2219 N   0  0  0  0  0  0  0  0  0  0  0  0
   -6.2252  -17.6983   13.3749 C   0  0  0  0  0  0  0  0  0  0  0  0
   -5.8114  -16.5911   14.0071 C   0  0  0  0  0  0  0  0  0  0  0  0
   -4.6385  -16.4456   15.2937 C   0  0  0  0  0  0  0  0  0  0  0  0
   -3.3668  -16.5328   15.1081 C   0  0  0  0  0  0  0  0  0  0  0  0
   -1.9517  -14.8416   14.9611 S   0  0  0  0  0  0  0  0  0  0  0  0
   -2.9946  -14.1987   13.7662 O   0  0  0  0  0  0  0  0  0  0  0  0
   -1.9772  -14.3652   16.3569 O   0  0  0  0  0  0  0  0  0  0  0  0
   -0.0092  -13.8696   13.7735 N   0  0  0  0  0  0  0  0  0  0  0  0
    1.3989  -12.1972   13.9423 C   0  0  0  0  0  0  0  0  0  0  0  0
    3.3154  -10.9672   13.8426 C   0  0  0  0  0  0  0  0  0  0  0  0
    5.7832  -10.9212   13.4001 S   0  0  0  0  0  0  0  0  0  0  0  0
    7.4386   -9.2278   12.4402 C   0  0  0  0  0  0  0  0  0  0  0  0
    8.8358   -9.1222   10.9013 C   0  0  0  0  0  0  0  0  0  0  0  0
    9.9777  -10.1231   10.5977 C   0  0  0  0  0  0  0  0  0  0  0  0
   10.8047   -9.7575    9.5646 C   0  0  0  0  0  0  0  0  0  0  0  0
   10.2828   -8.3430    8.7974 S   0  0  0  0  0  0  0  0  0  0  0  0
    8.9660   -8.1489    9.8737 C   0  0  0  0  0  0  0  0  0  0  0  0
   -3.7638  -17.5875   14.4151 C   0  0  0  0  0  0  0  0  0  0  0  0
   -5.2985  -18.5712   13.7691 C   0  0  0  0  0  0  0  0  0  0  0  0
   -5.4301  -19.6795   12.5607 O   0  0  0  0  0  0  0  0  0  0  0  0
   -8.2454  -21.1571   11.8575 H   0  0  0  0  0  0  0  0  0  0  0  0
   -8.9918  -19.6244   11.7675 H   0  0  0  0  0  0  0  0  0  0  0  0
   -8.1571  -20.2036   10.3589 H   0  0  0  0  0  0  0  0  0  0  0  0
   -5.6011  -15.8825   13.1777 H   0  0  0  0  0  0  0  0  0  0  0  0
   -4.9814  -16.3353   16.3357 H   0  0  0  0  0  0  0  0  0  0  0  0
   -0.3097  -13.8804   12.7985 H   0  0  0  0  0  0  0  0  0  0  0  0
    0.9543  -12.0570   12.9230 H   0  0  0  0  0  0  0  0  0  0  0  0
    1.7349  -12.7642   14.7875 H   0  0  0  0  0  0  0  0  0  0  0  0
    3.3951  -10.0192   14.2807 H   0  0  0  0  0  0  0  0  0  0  0  0
    3.8045  -11.2729   14.8568 H   0  0  0  0  0  0  0  0  0  0  0  0
    7.1746   -8.1060   12.1120 H   0  0  0  0  0  0  0  0  0  0  0  0
    7.1392   -8.3722   13.2127 H   0  0  0  0  0  0  0  0  0  0  0  0
   10.1407  -11.0403   11.1582 H   0  0  0  0  0  0  0  0  0  0  0  0
   11.6748  -10.2845    9.1981 H   0  0  0  0  0  0  0  0  0  0  0  0
    8.3250   -7.2937    9.6935 H   0  0  0  0  0  0  0  0  0  0  0  0
   -2.8393  -17.9685   14.0174 H   0  0  0  0  0  0  0  0  0  0  0  0
  1  2  1  0
  2  3  2  0
  3  4  1  0
  4  5  2  0
  5  6  1  0
  6  7  2  0
  7  8  1  0
  8  9  2  0
  8 10  2  0
  8 11  1  0
 11 12  1  0
 12 13  1  0
 13 14  1  0
 14 15  1  0
 15 16  1  0
 16 17  1  0
 17 18  2  0
 18 19  1  0
 19 20  1  0
  7 21  1  0
 21 22  2  0
 22 23  1  0
 23  2  1  0
 22  4  1  0
 20 16  2  0
  1 24  1  0
  1 25  1  0
  1 26  1  0
  5 27  1  0
  6 28  1  0
 11 29  1  0
 12 30  1  0
 12 31  1  0
 13 32  1  0
 13 33  1  0
 15 34  1  0
 15 35  1  0
 17 36  1  0
 18 37  1  0
 20 38  1  0
 21 39  1  0
M  END
>  <Energy>  (150) 
1541.1782106530745

>  <compound_id>  (150) 
11184

>  <target_id>  (150) 
1

>  <reference_id>  (150) 
66

>  <inspiration_ids>  (150) 
[2, 66]

>  <energy_score>  (150) 
1520.9025679852803

>  <distance_score>  (150) 
8.808789816151998

>  <path>  (150) 
/opt/xchem-fragalysis-2/maxwin/BulkDock/SCRATCH/511014/C11184-P66/C11184-P66.minimised.mol

>  <scratch_subdir>  (150) 
/opt/xchem-fragalysis-2/maxwin/BulkDock/SCRATCH/511014/C11184-P66

>  <fragmenstein_runtime>  (150) 
14.5608491897583

>  <fragmenstein_outcome>  (150) 
too moved

>  <fragmenstein_mode>  (150) 
expansion

>  <fragmenstein_error>  (150) 


$$$$
C11185-P2
     RDKit          3D

 37 39  0  0  0  0  0  0  0  0999 V2000
    4.3358  -12.5347   11.3801 O   0  0  0  0  0  0  0  0  0  0  0  0
    3.7693  -11.5681   11.1211 C   0  0  0  0  0  0  0  0  0  0  0  0
    3.8663  -10.2291   12.7876 C   0  0  0  0  0  0  0  0  0  0  0  0
    4.1850   -8.2389   13.1225 C   0  0  0  0  0  0  0  0  0  0  0  0
    4.1303   -6.7177   12.2083 C   0  0  0  0  0  0  0  0  0  0  0  0
    4.0216   -5.4656   12.8617 C   0  0  0  0  0  0  0  0  0  0  0  0
    4.1043   -5.9054   14.6515 S   0  0  0  0  0  0  0  0  0  0  0  0
    5.1975   -7.4733   13.6860 C   0  0  0  0  0  0  0  0  0  0  0  0
    3.0873  -11.4343    9.9788 N   0  0  0  0  0  0  0  0  0  0  0  0
    2.8972  -12.3418    8.8292 C   0  0  0  0  0  0  0  0  0  0  0  0
    2.9494  -14.3339    9.0914 C   0  0  0  0  0  0  0  0  0  0  0  0
    2.2076  -15.6692    7.9868 C   0  0  0  0  0  0  0  0  0  0  0  0
    1.2845  -16.8632    8.2238 C   0  0  0  0  0  0  0  0  0  0  0  0
    0.0740  -16.9687    7.6826 N   0  0  0  0  0  0  0  0  0  0  0  0
   -0.1809  -18.3138    7.5669 C   0  0  0  0  0  0  0  0  0  0  0  0
   -1.3258  -18.9977    7.1350 C   0  0  0  0  0  0  0  0  0  0  0  0
   -1.3711  -20.3895    7.2950 C   0  0  0  0  0  0  0  0  0  0  0  0
   -0.2780  -21.0803    7.8284 C   0  0  0  0  0  0  0  0  0  0  0  0
    0.8973  -20.4106    8.2135 C   0  0  0  0  0  0  0  0  0  0  0  0
    0.8901  -19.0232    8.0779 C   0  0  0  0  0  0  0  0  0  0  0  0
    1.8513  -18.1065    8.4658 O   0  0  0  0  0  0  0  0  0  0  0  0
    3.3865  -10.5521   13.7183 H   0  0  0  0  0  0  0  0  0  0  0  0
    4.8475  -10.5880   13.2410 H   0  0  0  0  0  0  0  0  0  0  0  0
    4.4870   -6.6737   11.2039 H   0  0  0  0  0  0  0  0  0  0  0  0
    3.9371   -4.4453   12.5147 H   0  0  0  0  0  0  0  0  0  0  0  0
    6.1478   -7.7586   14.1164 H   0  0  0  0  0  0  0  0  0  0  0  0
    2.7588  -10.4833    9.9467 H   0  0  0  0  0  0  0  0  0  0  0  0
    2.4385  -11.9012    7.9474 H   0  0  0  0  0  0  0  0  0  0  0  0
    3.9444  -12.1927    8.6622 H   0  0  0  0  0  0  0  0  0  0  0  0
    2.4402  -14.8451    9.8769 H   0  0  0  0  0  0  0  0  0  0  0  0
    3.9946  -14.5745    9.2950 H   0  0  0  0  0  0  0  0  0  0  0  0
    3.1052  -16.1728    7.5789 H   0  0  0  0  0  0  0  0  0  0  0  0
    1.6969  -15.1329    7.1684 H   0  0  0  0  0  0  0  0  0  0  0  0
   -2.1667  -18.4360    6.7614 H   0  0  0  0  0  0  0  0  0  0  0  0
   -2.2716  -20.9375    7.0331 H   0  0  0  0  0  0  0  0  0  0  0  0
   -0.3431  -22.1574    7.9670 H   0  0  0  0  0  0  0  0  0  0  0  0
    1.7384  -20.9300    8.6536 H   0  0  0  0  0  0  0  0  0  0  0  0
  1  2  2  0
  2  3  1  0
  3  4  1  0
  4  5  1  0
  5  6  2  0
  6  7  1  0
  7  8  1  0
  2  9  1  0
  9 10  1  0
 10 11  1  0
 11 12  1  0
 12 13  1  0
 13 14  2  0
 14 15  1  0
 15 16  2  0
 16 17  1  0
 17 18  2  0
 18 19  1  0
 19 20  2  0
 20 21  1  0
  8  4  2  0
 21 13  1  0
 20 15  1  0
  3 22  1  0
  3 23  1  0
  5 24  1  0
  6 25  1  0
  8 26  1  0
  9 27  1  0
 10 28  1  0
 10 29  1  0
 11 30  1  0
 11 31  1  0
 12 32  1  0
 12 33  1  0
 16 34  1  0
 17 35  1  0
 18 36  1  0
 19 37  1  0
M  END
>  <Energy>  (151) 
498.37477991932212

>  <compound_id>  (151) 
11185

>  <target_id>  (151) 
1

>  <reference_id>  (151) 
2

>  <inspiration_ids>  (151) 
[2, 66]

>  <energy_score>  (151) 
431.39990876854176

>  <distance_score>  (151) 
10.578084746063729

>  <path>  (151) 
/opt/xchem-fragalysis-2/maxwin/BulkDock/SCRATCH/511014/C11185-P2/C11185-P2.minimised.mol

>  <scratch_subdir>  (151) 
/opt/xchem-fragalysis-2/maxwin/BulkDock/SCRATCH/511014/C11185-P2

>  <fragmenstein_runtime>  (151) 
18.44092321395874

>  <fragmenstein_outcome>  (151) 
too moved

>  <fragmenstein_mode>  (151) 
expansion

>  <fragmenstein_error>  (151) 


$$$$
C11185-P66
     RDKit          3D

 37 39  0  0  0  0  0  0  0  0999 V2000
   -0.0844  -13.1751   12.7786 O   0  0  0  0  0  0  0  0  0  0  0  0
    0.3712  -13.4720   11.6923 C   0  0  0  0  0  0  0  0  0  0  0  0
    1.6944  -12.1959   11.1445 C   0  0  0  0  0  0  0  0  0  0  0  0
    2.9228  -10.8947   11.8468 C   0  0  0  0  0  0  0  0  0  0  0  0
    2.9278   -9.7841   11.0584 C   0  0  0  0  0  0  0  0  0  0  0  0
    3.4394   -8.3644   11.5484 C   0  0  0  0  0  0  0  0  0  0  0  0
    4.3948   -8.3731   13.4560 S   0  0  0  0  0  0  0  0  0  0  0  0
    3.9562  -10.4554   13.1939 C   0  0  0  0  0  0  0  0  0  0  0  0
   -0.0917  -14.6935   10.6565 N   0  0  0  0  0  0  0  0  0  0  0  0
   -1.4851  -15.8738   10.7455 C   0  0  0  0  0  0  0  0  0  0  0  0
   -2.3285  -17.2804    9.6789 C   0  0  0  0  0  0  0  0  0  0  0  0
   -3.9430  -18.1804    9.0169 C   0  0  0  0  0  0  0  0  0  0  0  0
   -6.0479  -18.2913    9.1415 C   0  0  0  0  0  0  0  0  0  0  0  0
   -7.0576  -18.2308    8.1726 N   0  0  0  0  0  0  0  0  0  0  0  0
   -8.1992  -19.4746    8.2548 C   0  0  0  0  0  0  0  0  0  0  0  0
   -9.0760  -20.1316    7.3162 C   0  0  0  0  0  0  0  0  0  0  0  0
   -9.7911  -21.2894    7.6574 C   0  0  0  0  0  0  0  0  0  0  0  0
   -9.7051  -21.8011    8.9405 C   0  0  0  0  0  0  0  0  0  0  0  0
   -8.9355  -21.1499    9.9191 C   0  0  0  0  0  0  0  0  0  0  0  0
   -8.1216  -20.0904    9.4737 C   0  0  0  0  0  0  0  0  0  0  0  0
   -6.8748  -19.3703   10.1386 O   0  0  0  0  0  0  0  0  0  0  0  0
    0.9412  -11.4327   10.9332 H   0  0  0  0  0  0  0  0  0  0  0  0
    2.4024  -12.5944   10.4301 H   0  0  0  0  0  0  0  0  0  0  0  0
    2.0004   -9.8340   10.4916 H   0  0  0  0  0  0  0  0  0  0  0  0
    3.0247   -7.3798   11.4418 H   0  0  0  0  0  0  0  0  0  0  0  0
    4.3239  -10.9498   14.0833 H   0  0  0  0  0  0  0  0  0  0  0  0
    0.5264  -14.7290    9.8923 H   0  0  0  0  0  0  0  0  0  0  0  0
   -1.9829  -15.2066   10.0499 H   0  0  0  0  0  0  0  0  0  0  0  0
   -0.6457  -16.5760   10.7103 H   0  0  0  0  0  0  0  0  0  0  0  0
   -1.8973  -18.1558   10.1941 H   0  0  0  0  0  0  0  0  0  0  0  0
   -1.7560  -17.1866    8.7421 H   0  0  0  0  0  0  0  0  0  0  0  0
   -3.6027  -19.2218    8.8833 H   0  0  0  0  0  0  0  0  0  0  0  0
   -3.8102  -17.5136    8.1427 H   0  0  0  0  0  0  0  0  0  0  0  0
   -9.1082  -19.8116    6.2780 H   0  0  0  0  0  0  0  0  0  0  0  0
  -10.3888  -21.7926    6.9026 H   0  0  0  0  0  0  0  0  0  0  0  0
  -10.2502  -22.7029    9.2081 H   0  0  0  0  0  0  0  0  0  0  0  0
   -8.8505  -21.5322   10.9296 H   0  0  0  0  0  0  0  0  0  0  0  0
  1  2  2  0
  2  3  1  0
  3  4  1  0
  4  5  1  0
  5  6  2  0
  6  7  1  0
  7  8  1  0
  2  9  1  0
  9 10  1  0
 10 11  1  0
 11 12  1  0
 12 13  1  0
 13 14  2  0
 14 15  1  0
 15 16  2  0
 16 17  1  0
 17 18  2  0
 18 19  1  0
 19 20  2  0
 20 21  1  0
  8  4  2  0
 21 13  1  0
 20 15  1  0
  3 22  1  0
  3 23  1  0
  5 24  1  0
  6 25  1  0
  8 26  1  0
  9 27  1  0
 10 28  1  0
 10 29  1  0
 11 30  1  0
 11 31  1  0
 12 32  1  0
 12 33  1  0
 16 34  1  0
 17 35  1  0
 18 36  1  0
 19 37  1  0
M  END
>  <Energy>  (152) 
762.09523573195554

>  <compound_id>  (152) 
11185

>  <target_id>  (152) 
1

>  <reference_id>  (152) 
66

>  <inspiration_ids>  (152) 
[2, 66]

>  <energy_score>  (152) 
695.1203645811811

>  <distance_score>  (152) 
9.249520897615069

>  <path>  (152) 
/opt/xchem-fragalysis-2/maxwin/BulkDock/SCRATCH/511014/C11185-P66/C11185-P66.minimised.mol

>  <scratch_subdir>  (152) 
/opt/xchem-fragalysis-2/maxwin/BulkDock/SCRATCH/511014/C11185-P66

>  <fragmenstein_runtime>  (152) 
14.32427430152893

>  <fragmenstein_outcome>  (152) 
too moved

>  <fragmenstein_mode>  (152) 
expansion

>  <fragmenstein_error>  (152) 


$$$$
C11186-P2
     RDKit          3D

 36 38  0  0  0  0  0  0  0  0999 V2000
   -6.7235  -19.0073    9.9317 C   0  0  0  0  0  0  0  0  0  0  0  0
   -5.7391  -17.8258    8.8151 N   0  0  0  0  0  0  0  0  0  0  0  0
   -7.0898  -17.4160    8.1866 C   0  0  0  0  0  0  0  0  0  0  0  0
   -3.8720  -17.3935    8.6299 C   0  0  0  0  0  0  0  0  0  0  0  0
   -2.7590  -17.8969    8.0656 N   0  0  0  0  0  0  0  0  0  0  0  0
   -1.4469  -17.1714    8.4719 C   0  0  0  0  0  0  0  0  0  0  0  0
   -0.1644  -17.5241    7.9741 C   0  0  0  0  0  0  0  0  0  0  0  0
    1.0172  -17.0792    8.6512 C   0  0  0  0  0  0  0  0  0  0  0  0
    1.0951  -16.1643    9.7811 C   0  0  0  0  0  0  0  0  0  0  0  0
    0.0110  -15.4204   10.3761 C   0  0  0  0  0  0  0  0  0  0  0  0
    0.6001  -13.6945   11.1687 C   0  0  0  0  0  0  0  0  0  0  0  0
   -0.1603  -13.2544   11.9933 O   0  0  0  0  0  0  0  0  0  0  0  0
    2.1762  -12.7055   10.5563 N   0  0  0  0  0  0  0  0  0  0  0  0
    2.7447  -11.0196   10.9186 S   0  0  0  0  0  0  0  0  0  0  0  0
    1.5398  -10.2279   10.9905 O   0  0  0  0  0  0  0  0  0  0  0  0
    3.4733  -10.9787    9.6427 O   0  0  0  0  0  0  0  0  0  0  0  0
    4.2291  -10.0323   11.7492 C   0  0  0  0  0  0  0  0  0  0  0  0
    4.9673   -8.9946   11.0373 C   0  0  0  0  0  0  0  0  0  0  0  0
    5.8264   -8.2679   11.8294 C   0  0  0  0  0  0  0  0  0  0  0  0
    5.6713   -8.6976   13.4620 S   0  0  0  0  0  0  0  0  0  0  0  0
    4.6988  -10.0409   13.0706 C   0  0  0  0  0  0  0  0  0  0  0  0
   -1.4149  -16.1571    9.5361 C   0  0  0  0  0  0  0  0  0  0  0  0
   -3.0114  -16.0177    9.3642 O   0  0  0  0  0  0  0  0  0  0  0  0
   -6.4092  -19.8828   10.5284 H   0  0  0  0  0  0  0  0  0  0  0  0
   -7.5462  -19.4811    9.3839 H   0  0  0  0  0  0  0  0  0  0  0  0
   -6.7250  -18.5645   10.9247 H   0  0  0  0  0  0  0  0  0  0  0  0
   -7.9619  -18.0095    8.4435 H   0  0  0  0  0  0  0  0  0  0  0  0
   -7.4196  -17.7509    7.2290 H   0  0  0  0  0  0  0  0  0  0  0  0
   -7.3356  -16.3920    8.4644 H   0  0  0  0  0  0  0  0  0  0  0  0
   -0.0935  -18.2769    7.1954 H   0  0  0  0  0  0  0  0  0  0  0  0
    1.9620  -17.5019    8.2980 H   0  0  0  0  0  0  0  0  0  0  0  0
    2.1136  -15.9626   10.0816 H   0  0  0  0  0  0  0  0  0  0  0  0
    2.7294  -13.2957    9.9180 H   0  0  0  0  0  0  0  0  0  0  0  0
    4.9094   -8.8124    9.9783 H   0  0  0  0  0  0  0  0  0  0  0  0
    6.4950   -7.4830   11.5172 H   0  0  0  0  0  0  0  0  0  0  0  0
    4.4024  -10.6321   13.9211 H   0  0  0  0  0  0  0  0  0  0  0  0
  1  2  1  0
  2  3  1  0
  2  4  1  0
  4  5  2  0
  5  6  1  0
  6  7  2  0
  7  8  1  0
  8  9  2  0
  9 10  1  0
 10 11  1  0
 11 12  2  0
 11 13  1  0
 13 14  1  0
 14 15  2  0
 14 16  2  0
 14 17  1  0
 17 18  1  0
 18 19  2  0
 19 20  1  0
 20 21  1  0
 10 22  2  0
 22 23  1  0
 23  4  1  0
 22  6  1  0
 21 17  2  0
  1 24  1  0
  1 25  1  0
  1 26  1  0
  3 27  1  0
  3 28  1  0
  3 29  1  0
  7 30  1  0
  8 31  1  0
  9 32  1  0
 13 33  1  0
 18 34  1  0
 19 35  1  0
 21 36  1  0
M  END
>  <Energy>  (153) 
593.68942420371297

>  <compound_id>  (153) 
11186

>  <target_id>  (153) 
1

>  <reference_id>  (153) 
2

>  <inspiration_ids>  (153) 
[2, 66]

>  <energy_score>  (153) 
639.5251517501097

>  <distance_score>  (153) 
10.738473467349698

>  <path>  (153) 
/opt/xchem-fragalysis-2/maxwin/BulkDock/SCRATCH/511014/C11186-P2/C11186-P2.minimised.mol

>  <scratch_subdir>  (153) 
/opt/xchem-fragalysis-2/maxwin/BulkDock/SCRATCH/511014/C11186-P2

>  <fragmenstein_runtime>  (153) 
13.190122365951538

>  <fragmenstein_outcome>  (153) 
too moved

>  <fragmenstein_mode>  (153) 
expansion

>  <fragmenstein_error>  (153) 


$$$$
C11186-P66
     RDKit          3D

 36 38  0  0  0  0  0  0  0  0999 V2000
   -8.0039  -20.0476   10.3089 C   0  0  0  0  0  0  0  0  0  0  0  0
   -7.3441  -19.1277    8.9054 N   0  0  0  0  0  0  0  0  0  0  0  0
   -8.5022  -19.6586    7.9612 C   0  0  0  0  0  0  0  0  0  0  0  0
   -5.8204  -18.3091    9.1527 C   0  0  0  0  0  0  0  0  0  0  0  0
   -4.4136  -19.3009    9.0653 N   0  0  0  0  0  0  0  0  0  0  0  0
   -3.0559  -18.5976    8.5790 C   0  0  0  0  0  0  0  0  0  0  0  0
   -2.0672  -19.1827    7.7316 C   0  0  0  0  0  0  0  0  0  0  0  0
   -0.8917  -18.4901    7.5137 C   0  0  0  0  0  0  0  0  0  0  0  0
   -0.5345  -17.3751    8.3378 C   0  0  0  0  0  0  0  0  0  0  0  0
   -1.2616  -16.5850    9.3952 C   0  0  0  0  0  0  0  0  0  0  0  0
    0.2731  -15.5231    9.9625 C   0  0  0  0  0  0  0  0  0  0  0  0
    1.2818  -16.0965    9.6728 O   0  0  0  0  0  0  0  0  0  0  0  0
    0.3784  -13.7826   10.6654 N   0  0  0  0  0  0  0  0  0  0  0  0
    2.0885  -12.4131   10.9299 S   0  0  0  0  0  0  0  0  0  0  0  0
    1.1308  -11.3338   11.1680 O   0  0  0  0  0  0  0  0  0  0  0  0
    3.0923  -12.8615    9.9682 O   0  0  0  0  0  0  0  0  0  0  0  0
    3.3919  -10.7808   10.8667 C   0  0  0  0  0  0  0  0  0  0  0  0
    4.2305  -10.4862    9.7289 C   0  0  0  0  0  0  0  0  0  0  0  0
    5.1010   -9.3536    9.8775 C   0  0  0  0  0  0  0  0  0  0  0  0
    5.1734   -8.8137   11.4804 S   0  0  0  0  0  0  0  0  0  0  0  0
    4.1666  -10.1650   11.8961 C   0  0  0  0  0  0  0  0  0  0  0  0
   -2.8338  -17.2536    8.9946 C   0  0  0  0  0  0  0  0  0  0  0  0
   -4.5140  -17.1243    8.3662 O   0  0  0  0  0  0  0  0  0  0  0  0
   -7.4226  -19.7960   11.1966 H   0  0  0  0  0  0  0  0  0  0  0  0
   -8.3365  -21.0458   10.0006 H   0  0  0  0  0  0  0  0  0  0  0  0
   -9.0373  -19.8368   10.6602 H   0  0  0  0  0  0  0  0  0  0  0  0
   -8.5523  -20.7512    8.0590 H   0  0  0  0  0  0  0  0  0  0  0  0
   -9.4979  -19.3828    8.3334 H   0  0  0  0  0  0  0  0  0  0  0  0
   -8.5992  -19.5706    6.8743 H   0  0  0  0  0  0  0  0  0  0  0  0
   -2.1978  -20.1816    7.3311 H   0  0  0  0  0  0  0  0  0  0  0  0
   -0.1397  -18.9012    6.8418 H   0  0  0  0  0  0  0  0  0  0  0  0
    0.5013  -17.1077    8.0987 H   0  0  0  0  0  0  0  0  0  0  0  0
   -0.5290  -13.4307   10.7716 H   0  0  0  0  0  0  0  0  0  0  0  0
    4.1528  -11.0164    8.7847 H   0  0  0  0  0  0  0  0  0  0  0  0
    5.7253   -8.9099    9.1112 H   0  0  0  0  0  0  0  0  0  0  0  0
    4.1918  -10.3231   12.9646 H   0  0  0  0  0  0  0  0  0  0  0  0
  1  2  1  0
  2  3  1  0
  2  4  1  0
  4  5  2  0
  5  6  1  0
  6  7  2  0
  7  8  1  0
  8  9  2  0
  9 10  1  0
 10 11  1  0
 11 12  2  0
 11 13  1  0
 13 14  1  0
 14 15  2  0
 14 16  2  0
 14 17  1  0
 17 18  1  0
 18 19  2  0
 19 20  1  0
 20 21  1  0
 10 22  2  0
 22 23  1  0
 23  4  1  0
 22  6  1  0
 21 17  2  0
  1 24  1  0
  1 25  1  0
  1 26  1  0
  3 27  1  0
  3 28  1  0
  3 29  1  0
  7 30  1  0
  8 31  1  0
  9 32  1  0
 13 33  1  0
 18 34  1  0
 19 35  1  0
 21 36  1  0
M  END
>  <Energy>  (154) 
870.59507817128917

>  <compound_id>  (154) 
11186

>  <target_id>  (154) 
1

>  <reference_id>  (154) 
66

>  <inspiration_ids>  (154) 
[2, 66]

>  <energy_score>  (154) 
916.4308057176811

>  <distance_score>  (154) 
10.485984313747158

>  <path>  (154) 
/opt/xchem-fragalysis-2/maxwin/BulkDock/SCRATCH/511014/C11186-P66/C11186-P66.minimised.mol

>  <scratch_subdir>  (154) 
/opt/xchem-fragalysis-2/maxwin/BulkDock/SCRATCH/511014/C11186-P66

>  <fragmenstein_runtime>  (154) 
11.916634798049927

>  <fragmenstein_outcome>  (154) 
too moved

>  <fragmenstein_mode>  (154) 
expansion

>  <fragmenstein_error>  (154) 


$$$$
C11187-P2
     RDKit          3D

 40 42  0  0  0  0  0  0  0  0999 V2000
   -8.5384  -18.0976    7.6666 C   0  0  0  0  0  0  0  0  0  0  0  0
   -7.5106  -16.7605    8.1354 N   0  0  0  0  0  0  0  0  0  0  0  0
   -6.5753  -17.7743    8.5464 C   0  0  0  0  0  0  0  0  0  0  0  0
   -7.1410  -14.9995    7.6731 C   0  0  0  0  0  0  0  0  0  0  0  0
   -5.7115  -14.2252    6.9828 N   0  0  0  0  0  0  0  0  0  0  0  0
   -4.5193  -13.7348    8.2971 C   0  0  0  0  0  0  0  0  0  0  0  0
   -2.9891  -12.5557    8.8101 C   0  0  0  0  0  0  0  0  0  0  0  0
   -1.9329  -10.7074    9.4525 C   0  0  0  0  0  0  0  0  0  0  0  0
   -2.7050   -9.9941    9.7939 O   0  0  0  0  0  0  0  0  0  0  0  0
   -0.0866   -9.7197    9.4686 N   0  0  0  0  0  0  0  0  0  0  0  0
    0.4822   -7.8177    9.7763 C   0  0  0  0  0  0  0  0  0  0  0  0
    1.9322   -7.1132   11.0301 C   0  0  0  0  0  0  0  0  0  0  0  0
    3.1406   -7.7584   11.4203 O   0  0  0  0  0  0  0  0  0  0  0  0
    2.7621   -5.4035   11.5227 C   0  0  0  0  0  0  0  0  0  0  0  0
    3.8494   -5.2311   12.4720 C   0  0  0  0  0  0  0  0  0  0  0  0
    4.1027   -3.9227   12.8392 C   0  0  0  0  0  0  0  0  0  0  0  0
    3.4965   -2.8420   11.6982 S   0  0  0  0  0  0  0  0  0  0  0  0
    2.7512   -4.1366   10.8712 C   0  0  0  0  0  0  0  0  0  0  0  0
   -4.1992  -13.3802    8.8850 C   0  0  0  0  0  0  0  0  0  0  0  0
   -5.7438  -14.0202    9.8244 C   0  0  0  0  0  0  0  0  0  0  0  0
   -6.0433  -15.0351   10.4466 C   0  0  0  0  0  0  0  0  0  0  0  0
   -5.8889  -14.6852    9.1666 C   0  0  0  0  0  0  0  0  0  0  0  0
   -7.4395  -14.3991    8.7336 O   0  0  0  0  0  0  0  0  0  0  0  0
   -8.4477  -18.3694    6.6049 H   0  0  0  0  0  0  0  0  0  0  0  0
   -9.5334  -18.0844    8.0861 H   0  0  0  0  0  0  0  0  0  0  0  0
   -8.4068  -19.0558    8.2022 H   0  0  0  0  0  0  0  0  0  0  0  0
   -6.1625  -17.7197    9.4702 H   0  0  0  0  0  0  0  0  0  0  0  0
   -5.7205  -17.5671    8.0917 H   0  0  0  0  0  0  0  0  0  0  0  0
   -6.8915  -18.7585    8.8944 H   0  0  0  0  0  0  0  0  0  0  0  0
    0.5624  -10.3081    9.2697 H   0  0  0  0  0  0  0  0  0  0  0  0
   -0.3339   -7.0779    9.6585 H   0  0  0  0  0  0  0  0  0  0  0  0
    0.5830   -7.7198    8.7118 H   0  0  0  0  0  0  0  0  0  0  0  0
    1.1799   -7.1638   11.7771 H   0  0  0  0  0  0  0  0  0  0  0  0
    2.9157   -8.6527   11.7269 H   0  0  0  0  0  0  0  0  0  0  0  0
    4.3365   -6.0785   12.9321 H   0  0  0  0  0  0  0  0  0  0  0  0
    4.7205   -3.5418   13.6394 H   0  0  0  0  0  0  0  0  0  0  0  0
    2.2536   -3.8638    9.9508 H   0  0  0  0  0  0  0  0  0  0  0  0
   -4.2796  -12.1212    8.2061 H   0  0  0  0  0  0  0  0  0  0  0  0
   -6.2577  -13.7574   11.0377 H   0  0  0  0  0  0  0  0  0  0  0  0
   -6.4028  -15.7993   11.0416 H   0  0  0  0  0  0  0  0  0  0  0  0
  1  2  1  0
  2  3  1  0
  2  4  1  0
  4  5  2  0
  5  6  1  0
  6  7  2  0
  7  8  1  0
  8  9  2  0
  8 10  1  0
 10 11  1  0
 11 12  1  0
 12 13  1  0
 12 14  1  0
 14 15  1  0
 15 16  2  0
 16 17  1  0
 17 18  1  0
  7 19  1  0
 19 20  2  0
 20 21  1  0
 21 22  2  0
 22 23  1  0
 23  4  1  0
 22  6  1  0
 18 14  2  0
  1 24  1  0
  1 25  1  0
  1 26  1  0
  3 27  1  0
  3 28  1  0
  3 29  1  0
 10 30  1  0
 11 31  1  0
 11 32  1  0
 12 33  1  0
 13 34  1  0
 15 35  1  0
 16 36  1  0
 18 37  1  0
 19 38  1  0
 20 39  1  0
 21 40  1  0
M  END
>  <Energy>  (155) 
2176.0324040546193

>  <compound_id>  (155) 
11187

>  <target_id>  (155) 
1

>  <reference_id>  (155) 
2

>  <inspiration_ids>  (155) 
[2, 66]

>  <energy_score>  (155) 
2101.7105098976144

>  <distance_score>  (155) 
9.976439550768486

>  <path>  (155) 
/opt/xchem-fragalysis-2/maxwin/BulkDock/SCRATCH/511014/C11187-P2/C11187-P2.minimised.mol

>  <scratch_subdir>  (155) 
/opt/xchem-fragalysis-2/maxwin/BulkDock/SCRATCH/511014/C11187-P2

>  <fragmenstein_runtime>  (155) 
11.413644075393677

>  <fragmenstein_outcome>  (155) 
too moved

>  <fragmenstein_mode>  (155) 
expansion

>  <fragmenstein_error>  (155) 


$$$$
C11187-P66
     RDKit          3D

 40 42  0  0  0  0  0  0  0  0999 V2000
   -9.8644  -21.3271    4.8284 C   0  0  0  0  0  0  0  0  0  0  0  0
   -9.1654  -20.0812    4.5802 N   0  0  0  0  0  0  0  0  0  0  0  0
   -8.4612  -19.9581    3.3180 C   0  0  0  0  0  0  0  0  0  0  0  0
   -8.6352  -19.4265    5.6390 C   0  0  0  0  0  0  0  0  0  0  0  0
   -7.7211  -18.4705    5.7264 N   0  0  0  0  0  0  0  0  0  0  0  0
   -6.9176  -17.8442    7.4142 C   0  0  0  0  0  0  0  0  0  0  0  0
   -5.0518  -17.0478    7.7397 C   0  0  0  0  0  0  0  0  0  0  0  0
   -4.5788  -15.6923    5.9980 C   0  0  0  0  0  0  0  0  0  0  0  0
   -4.1522  -16.2295    5.0112 O   0  0  0  0  0  0  0  0  0  0  0  0
   -4.9174  -14.2293    6.0433 N   0  0  0  0  0  0  0  0  0  0  0  0
   -4.9398  -13.0422    4.8483 C   0  0  0  0  0  0  0  0  0  0  0  0
   -4.1214  -12.8869    3.4044 C   0  0  0  0  0  0  0  0  0  0  0  0
   -3.2415  -13.9731    3.1453 O   0  0  0  0  0  0  0  0  0  0  0  0
   -3.5936  -11.5091    2.7668 C   0  0  0  0  0  0  0  0  0  0  0  0
   -2.3928  -11.4022    1.9220 C   0  0  0  0  0  0  0  0  0  0  0  0
   -1.9295  -10.1081    1.7719 C   0  0  0  0  0  0  0  0  0  0  0  0
   -3.0207   -8.9876    2.4492 S   0  0  0  0  0  0  0  0  0  0  0  0
   -4.1498  -10.2400    2.8152 C   0  0  0  0  0  0  0  0  0  0  0  0
   -6.4702  -17.5662    8.4131 C   0  0  0  0  0  0  0  0  0  0  0  0
   -7.2034  -19.0657    9.1473 C   0  0  0  0  0  0  0  0  0  0  0  0
   -8.2137  -19.8972    8.8847 C   0  0  0  0  0  0  0  0  0  0  0  0
   -8.2379  -19.0510    7.9004 C   0  0  0  0  0  0  0  0  0  0  0  0
   -8.9838  -19.7819    6.8959 O   0  0  0  0  0  0  0  0  0  0  0  0
  -10.6443  -21.2049    5.5886 H   0  0  0  0  0  0  0  0  0  0  0  0
  -10.3636  -21.6809    3.9196 H   0  0  0  0  0  0  0  0  0  0  0  0
   -9.1689  -22.1069    5.1583 H   0  0  0  0  0  0  0  0  0  0  0  0
   -9.0783  -20.3306    2.4929 H   0  0  0  0  0  0  0  0  0  0  0  0
   -7.5299  -20.5351    3.3330 H   0  0  0  0  0  0  0  0  0  0  0  0
   -8.2222  -18.9140    3.0883 H   0  0  0  0  0  0  0  0  0  0  0  0
   -5.1659  -14.0131    6.9754 H   0  0  0  0  0  0  0  0  0  0  0  0
   -5.7332  -13.6550    4.3677 H   0  0  0  0  0  0  0  0  0  0  0  0
   -5.6443  -12.2178    4.9871 H   0  0  0  0  0  0  0  0  0  0  0  0
   -4.9284  -13.0785    2.6757 H   0  0  0  0  0  0  0  0  0  0  0  0
   -2.5249  -13.8925    3.8199 H   0  0  0  0  0  0  0  0  0  0  0  0
   -1.8260  -12.2731    1.6066 H   0  0  0  0  0  0  0  0  0  0  0  0
   -1.0155   -9.7852    1.2919 H   0  0  0  0  0  0  0  0  0  0  0  0
   -5.1336   -9.9733    3.1770 H   0  0  0  0  0  0  0  0  0  0  0  0
   -6.9540  -16.4997    8.7428 H   0  0  0  0  0  0  0  0  0  0  0  0
   -6.8587  -19.2491   10.2190 H   0  0  0  0  0  0  0  0  0  0  0  0
   -8.7623  -20.7207    9.2492 H   0  0  0  0  0  0  0  0  0  0  0  0
  1  2  1  0
  2  3  1  0
  2  4  1  0
  4  5  2  0
  5  6  1  0
  6  7  2  0
  7  8  1  0
  8  9  2  0
  8 10  1  0
 10 11  1  0
 11 12  1  0
 12 13  1  0
 12 14  1  0
 14 15  1  0
 15 16  2  0
 16 17  1  0
 17 18  1  0
  7 19  1  0
 19 20  2  0
 20 21  1  0
 21 22  2  0
 22 23  1  0
 23  4  1  0
 22  6  1  0
 18 14  2  0
  1 24  1  0
  1 25  1  0
  1 26  1  0
  3 27  1  0
  3 28  1  0
  3 29  1  0
 10 30  1  0
 11 31  1  0
 11 32  1  0
 12 33  1  0
 13 34  1  0
 15 35  1  0
 16 36  1  0
 18 37  1  0
 19 38  1  0
 20 39  1  0
 21 40  1  0
M  END
>  <Energy>  (156) 
1002.8712204194305

>  <compound_id>  (156) 
11187

>  <target_id>  (156) 
1

>  <reference_id>  (156) 
66

>  <inspiration_ids>  (156) 
[2, 66]

>  <energy_score>  (156) 
928.549326262395

>  <distance_score>  (156) 
15.126350681786372

>  <path>  (156) 
/opt/xchem-fragalysis-2/maxwin/BulkDock/SCRATCH/511014/C11187-P66/C11187-P66.minimised.mol

>  <scratch_subdir>  (156) 
/opt/xchem-fragalysis-2/maxwin/BulkDock/SCRATCH/511014/C11187-P66

>  <fragmenstein_runtime>  (156) 
11.695647239685059

>  <fragmenstein_outcome>  (156) 
too moved

>  <fragmenstein_mode>  (156) 
expansion

>  <fragmenstein_error>  (156) 


$$$$
C11188-P2
     RDKit          3D

 47 50  0  0  0  0  0  0  0  0999 V2000
   -4.5261   -8.7375   15.1408 C   0  0  0  0  0  0  0  0  0  0  0  0
   -4.2293   -9.8312   14.1409 N   0  0  0  0  0  0  0  0  0  0  0  0
   -2.3819   -9.0573   14.2276 C   0  0  0  0  0  0  0  0  0  0  0  0
   -1.0373   -7.4825   14.0863 C   0  0  0  0  0  0  0  0  0  0  0  0
   -0.0305   -7.1463   15.4602 C   0  0  0  0  0  0  0  0  0  0  0  0
    0.3731   -5.8552   15.7309 C   0  0  0  0  0  0  0  0  0  0  0  0
   -0.1427   -4.8156   14.5214 S   0  0  0  0  0  0  0  0  0  0  0  0
   -1.1135   -6.0459   13.7565 C   0  0  0  0  0  0  0  0  0  0  0  0
   -5.4204   -9.8094   12.8392 C   0  0  0  0  0  0  0  0  0  0  0  0
   -5.3186   -9.1923   11.7971 O   0  0  0  0  0  0  0  0  0  0  0  0
   -6.9553  -10.9117   12.7774 C   0  0  0  0  0  0  0  0  0  0  0  0
   -8.1251  -10.7746   11.8586 C   0  0  0  0  0  0  0  0  0  0  0  0
   -8.7694  -11.7749   10.6184 C   0  0  0  0  0  0  0  0  0  0  0  0
   -8.1193  -13.0716   10.0100 C   0  0  0  0  0  0  0  0  0  0  0  0
   -7.9333  -14.0317    8.6377 N   0  0  0  0  0  0  0  0  0  0  0  0
   -7.1300  -15.3871    8.7398 C   0  0  0  0  0  0  0  0  0  0  0  0
   -7.5240  -17.3285    8.1766 C   0  0  0  0  0  0  0  0  0  0  0  0
   -7.1530  -18.8275    9.1369 C   0  0  0  0  0  0  0  0  0  0  0  0
   -8.0940  -20.1721    9.2125 C   0  0  0  0  0  0  0  0  0  0  0  0
   -8.9245  -20.6025    8.0385 C   0  0  0  0  0  0  0  0  0  0  0  0
   -9.4275  -19.3811    7.3820 C   0  0  0  0  0  0  0  0  0  0  0  0
   -8.4134  -18.3631    6.8391 C   0  0  0  0  0  0  0  0  0  0  0  0
   -6.0967  -14.6594    9.9126 O   0  0  0  0  0  0  0  0  0  0  0  0
   -6.9480  -13.5101   10.9601 C   0  0  0  0  0  0  0  0  0  0  0  0
   -6.5455  -12.3745   12.3070 C   0  0  0  0  0  0  0  0  0  0  0  0
   -5.6083   -8.8577   15.3028 H   0  0  0  0  0  0  0  0  0  0  0  0
   -4.4593   -7.6576   14.9904 H   0  0  0  0  0  0  0  0  0  0  0  0
   -4.1016   -9.0220   16.1097 H   0  0  0  0  0  0  0  0  0  0  0  0
   -1.7017   -9.7876   14.5816 H   0  0  0  0  0  0  0  0  0  0  0  0
   -2.0327   -9.3694   13.2738 H   0  0  0  0  0  0  0  0  0  0  0  0
    0.1842   -7.9387   16.1694 H   0  0  0  0  0  0  0  0  0  0  0  0
    0.9755   -5.5127   16.5621 H   0  0  0  0  0  0  0  0  0  0  0  0
   -1.8474   -5.4694   13.2178 H   0  0  0  0  0  0  0  0  0  0  0  0
   -8.5907   -9.7796   11.8397 H   0  0  0  0  0  0  0  0  0  0  0  0
   -9.5567  -11.3100   10.0206 H   0  0  0  0  0  0  0  0  0  0  0  0
   -8.5058  -17.3044    8.5296 H   0  0  0  0  0  0  0  0  0  0  0  0
   -6.1928  -18.6832    8.7513 H   0  0  0  0  0  0  0  0  0  0  0  0
   -6.8621  -18.8390   10.1936 H   0  0  0  0  0  0  0  0  0  0  0  0
   -7.5809  -21.0444    9.6098 H   0  0  0  0  0  0  0  0  0  0  0  0
   -8.8073  -20.0650   10.0452 H   0  0  0  0  0  0  0  0  0  0  0  0
   -8.4403  -21.2331    7.3003 H   0  0  0  0  0  0  0  0  0  0  0  0
   -9.7686  -21.2045    8.4008 H   0  0  0  0  0  0  0  0  0  0  0  0
  -10.0039  -18.8891    8.1586 H   0  0  0  0  0  0  0  0  0  0  0  0
  -10.0617  -19.7067    6.5488 H   0  0  0  0  0  0  0  0  0  0  0  0
   -8.8014  -17.9936    5.8902 H   0  0  0  0  0  0  0  0  0  0  0  0
   -7.8175  -18.8816    6.1032 H   0  0  0  0  0  0  0  0  0  0  0  0
   -5.4681  -12.3221   12.2903 H   0  0  0  0  0  0  0  0  0  0  0  0
  1  2  1  0
  2  3  1  0
  3  4  1  0
  4  5  1  0
  5  6  2  0
  6  7  1  0
  7  8  1  0
  2  9  1  0
  9 10  2  0
  9 11  1  0
 11 12  2  0
 12 13  1  0
 13 14  2  0
 14 15  1  0
 15 16  2  0
 16 17  1  0
 17 18  1  0
 18 19  1  0
 19 20  1  0
 20 21  1  0
 21 22  1  0
 16 23  1  0
 23 24  1  0
 24 25  2  0
  8  4  2  0
 25 11  1  0
 24 14  1  0
 22 17  1  0
  1 26  1  0
  1 27  1  0
  1 28  1  0
  3 29  1  0
  3 30  1  0
  5 31  1  0
  6 32  1  0
  8 33  1  0
 12 34  1  0
 13 35  1  0
 17 36  1  0
 18 37  1  0
 18 38  1  0
 19 39  1  0
 19 40  1  0
 20 41  1  0
 20 42  1  0
 21 43  1  0
 21 44  1  0
 22 45  1  0
 22 46  1  0
 25 47  1  0
M  END
>  <Energy>  (157) 
1020.9380823343272

>  <compound_id>  (157) 
11188

>  <target_id>  (157) 
1

>  <reference_id>  (157) 
2

>  <inspiration_ids>  (157) 
[2, 66]

>  <energy_score>  (157) 
946.6542162691039

>  <distance_score>  (157) 
12.024407309626763

>  <path>  (157) 
/opt/xchem-fragalysis-2/maxwin/BulkDock/SCRATCH/511014/C11188-P2/C11188-P2.minimised.mol

>  <scratch_subdir>  (157) 
/opt/xchem-fragalysis-2/maxwin/BulkDock/SCRATCH/511014/C11188-P2

>  <fragmenstein_runtime>  (157) 
12.221532583236694

>  <fragmenstein_outcome>  (157) 
too moved

>  <fragmenstein_mode>  (157) 
expansion

>  <fragmenstein_error>  (157) 


$$$$
C11188-P66
     RDKit          3D

 47 50  0  0  0  0  0  0  0  0999 V2000
   -0.0533  -15.1150   11.8288 C   0  0  0  0  0  0  0  0  0  0  0  0
   -0.1124  -15.0578   10.4524 N   0  0  0  0  0  0  0  0  0  0  0  0
    0.8551  -13.4780   10.8745 C   0  0  0  0  0  0  0  0  0  0  0  0
    2.5400  -12.6169   10.5121 C   0  0  0  0  0  0  0  0  0  0  0  0
    3.7761  -13.1248    9.8011 C   0  0  0  0  0  0  0  0  0  0  0  0
    4.8593  -12.2703    9.7812 C   0  0  0  0  0  0  0  0  0  0  0  0
    4.5020  -10.7868   10.5079 S   0  0  0  0  0  0  0  0  0  0  0  0
    2.8606  -11.2764   10.7935 C   0  0  0  0  0  0  0  0  0  0  0  0
   -1.8120  -15.2885    9.8624 C   0  0  0  0  0  0  0  0  0  0  0  0
   -2.5075  -14.3594    9.7046 O   0  0  0  0  0  0  0  0  0  0  0  0
   -2.6638  -16.5941    9.6435 C   0  0  0  0  0  0  0  0  0  0  0  0
   -3.4237  -15.7017   11.1119 C   0  0  0  0  0  0  0  0  0  0  0  0
   -5.3829  -15.8955   11.6053 C   0  0  0  0  0  0  0  0  0  0  0  0
   -6.4191  -17.3714   10.9022 C   0  0  0  0  0  0  0  0  0  0  0  0
   -6.9357  -19.1778   10.6847 N   0  0  0  0  0  0  0  0  0  0  0  0
   -7.5740  -19.4815    9.2669 C   0  0  0  0  0  0  0  0  0  0  0  0
   -8.6417  -20.5379    8.3641 C   0  0  0  0  0  0  0  0  0  0  0  0
  -10.0851  -20.4191    8.6364 C   0  0  0  0  0  0  0  0  0  0  0  0
  -10.7040  -21.8523    8.5563 C   0  0  0  0  0  0  0  0  0  0  0  0
  -10.7225  -22.3710    7.1234 C   0  0  0  0  0  0  0  0  0  0  0  0
   -9.4023  -22.1243    6.4336 C   0  0  0  0  0  0  0  0  0  0  0  0
   -8.8411  -20.7175    6.7521 C   0  0  0  0  0  0  0  0  0  0  0  0
   -6.8640  -18.5748    8.4698 O   0  0  0  0  0  0  0  0  0  0  0  0
   -5.8064  -18.0768    9.2702 C   0  0  0  0  0  0  0  0  0  0  0  0
   -3.8912  -17.7087    8.8508 C   0  0  0  0  0  0  0  0  0  0  0  0
   -0.5497  -14.4007   12.4283 H   0  0  0  0  0  0  0  0  0  0  0  0
   -0.2165  -16.1695   11.8984 H   0  0  0  0  0  0  0  0  0  0  0  0
    0.9544  -15.1811   12.2170 H   0  0  0  0  0  0  0  0  0  0  0  0
    0.8334  -13.3200   11.9597 H   0  0  0  0  0  0  0  0  0  0  0  0
    0.0938  -12.6923   10.7307 H   0  0  0  0  0  0  0  0  0  0  0  0
    3.8403  -14.1151    9.3591 H   0  0  0  0  0  0  0  0  0  0  0  0
    5.8364  -12.4589    9.3590 H   0  0  0  0  0  0  0  0  0  0  0  0
    2.1548  -10.5637   11.1645 H   0  0  0  0  0  0  0  0  0  0  0  0
   -2.9340  -14.9144   11.6572 H   0  0  0  0  0  0  0  0  0  0  0  0
   -5.5692  -15.4696   12.6024 H   0  0  0  0  0  0  0  0  0  0  0  0
   -8.4028  -21.5102    8.7654 H   0  0  0  0  0  0  0  0  0  0  0  0
  -10.1879  -19.7267    9.4464 H   0  0  0  0  0  0  0  0  0  0  0  0
  -10.5717  -19.8393    7.8883 H   0  0  0  0  0  0  0  0  0  0  0  0
  -10.1553  -22.5499    9.2026 H   0  0  0  0  0  0  0  0  0  0  0  0
  -11.7357  -21.8976    8.8888 H   0  0  0  0  0  0  0  0  0  0  0  0
  -10.9718  -23.4378    7.1065 H   0  0  0  0  0  0  0  0  0  0  0  0
  -11.5127  -21.8585    6.5619 H   0  0  0  0  0  0  0  0  0  0  0  0
   -9.5291  -22.2352    5.3501 H   0  0  0  0  0  0  0  0  0  0  0  0
   -8.6839  -22.8922    6.7426 H   0  0  0  0  0  0  0  0  0  0  0  0
   -9.5318  -19.9845    6.3267 H   0  0  0  0  0  0  0  0  0  0  0  0
   -8.0327  -20.6307    6.0474 H   0  0  0  0  0  0  0  0  0  0  0  0
   -3.4004  -18.7125    8.7733 H   0  0  0  0  0  0  0  0  0  0  0  0
  1  2  1  0
  2  3  1  0
  3  4  1  0
  4  5  1  0
  5  6  2  0
  6  7  1  0
  7  8  1  0
  2  9  1  0
  9 10  2  0
  9 11  1  0
 11 12  2  0
 12 13  1  0
 13 14  2  0
 14 15  1  0
 15 16  2  0
 16 17  1  0
 17 18  1  0
 18 19  1  0
 19 20  1  0
 20 21  1  0
 21 22  1  0
 16 23  1  0
 23 24  1  0
 24 25  2  0
  8  4  2  0
 25 11  1  0
 24 14  1  0
 22 17  1  0
  1 26  1  0
  1 27  1  0
  1 28  1  0
  3 29  1  0
  3 30  1  0
  5 31  1  0
  6 32  1  0
  8 33  1  0
 12 34  1  0
 13 35  1  0
 17 36  1  0
 18 37  1  0
 18 38  1  0
 19 39  1  0
 19 40  1  0
 20 41  1  0
 20 42  1  0
 21 43  1  0
 21 44  1  0
 22 45  1  0
 22 46  1  0
 25 47  1  0
M  END
>  <Energy>  (158) 
1177.9834733246503

>  <compound_id>  (158) 
11188

>  <target_id>  (158) 
1

>  <reference_id>  (158) 
66

>  <inspiration_ids>  (158) 
[2, 66]

>  <energy_score>  (158) 
1103.699607259429

>  <distance_score>  (158) 
10.982438138414981

>  <path>  (158) 
/opt/xchem-fragalysis-2/maxwin/BulkDock/SCRATCH/511014/C11188-P66/C11188-P66.minimised.mol

>  <scratch_subdir>  (158) 
/opt/xchem-fragalysis-2/maxwin/BulkDock/SCRATCH/511014/C11188-P66

>  <fragmenstein_runtime>  (158) 
10.330471754074097

>  <fragmenstein_outcome>  (158) 
too moved

>  <fragmenstein_mode>  (158) 
expansion

>  <fragmenstein_error>  (158) 


$$$$
C11189-P2
     RDKit          3D

 32 34  0  0  0  0  0  0  0  0999 V2000
   -6.2420  -14.7364    9.1166 C   0  0  0  0  0  0  0  0  0  0  0  0
   -5.8028  -14.8422   10.6231 C   0  0  0  0  0  0  0  0  0  0  0  0
   -4.0235  -15.1252   11.0917 N   0  0  0  0  0  0  0  0  0  0  0  0
   -4.0630  -14.1944   12.5770 C   0  0  0  0  0  0  0  0  0  0  0  0
   -4.0214  -12.2295   12.3923 C   0  0  0  0  0  0  0  0  0  0  0  0
   -1.9556  -11.0579   12.1569 C   0  0  0  0  0  0  0  0  0  0  0  0
   -0.9426  -11.3108   11.4342 O   0  0  0  0  0  0  0  0  0  0  0  0
   -1.7452   -9.6001   13.3608 O   0  0  0  0  0  0  0  0  0  0  0  0
   -0.9133   -7.8962   13.6257 C   0  0  0  0  0  0  0  0  0  0  0  0
   -0.5191   -6.3262   14.5468 C   0  0  0  0  0  0  0  0  0  0  0  0
   -1.0657   -5.3017   14.1056 O   0  0  0  0  0  0  0  0  0  0  0  0
    0.4307   -6.0803   15.7006 C   0  0  0  0  0  0  0  0  0  0  0  0
    0.7419   -6.8688   16.8578 C   0  0  0  0  0  0  0  0  0  0  0  0
    1.8032   -6.3691   17.5917 C   0  0  0  0  0  0  0  0  0  0  0  0
    2.4051   -4.9069   16.9507 S   0  0  0  0  0  0  0  0  0  0  0  0
    1.2203   -4.9242   15.7152 C   0  0  0  0  0  0  0  0  0  0  0  0
   -4.2887  -13.9783   13.0812 C   0  0  0  0  0  0  0  0  0  0  0  0
   -4.7247  -15.8389   13.7578 C   0  0  0  0  0  0  0  0  0  0  0  0
   -5.8422  -16.4086   13.5377 C   0  0  0  0  0  0  0  0  0  0  0  0
   -5.6202  -15.3143   12.6341 C   0  0  0  0  0  0  0  0  0  0  0  0
   -6.1536  -15.7496   11.4399 O   0  0  0  0  0  0  0  0  0  0  0  0
   -7.1189  -14.1900    8.7709 H   0  0  0  0  0  0  0  0  0  0  0  0
   -5.3749  -14.4050    8.5307 H   0  0  0  0  0  0  0  0  0  0  0  0
   -6.7413  -15.6917    8.9420 H   0  0  0  0  0  0  0  0  0  0  0  0
   -1.1759   -7.2833   12.7666 H   0  0  0  0  0  0  0  0  0  0  0  0
   -0.0236   -8.1082   13.1022 H   0  0  0  0  0  0  0  0  0  0  0  0
    0.2442   -7.7926   17.1217 H   0  0  0  0  0  0  0  0  0  0  0  0
    2.2513   -6.7972   18.4787 H   0  0  0  0  0  0  0  0  0  0  0  0
    1.2005   -4.1153   14.9947 H   0  0  0  0  0  0  0  0  0  0  0  0
   -5.6851  -13.5396   12.7572 H   0  0  0  0  0  0  0  0  0  0  0  0
   -3.9577  -16.4186   14.3562 H   0  0  0  0  0  0  0  0  0  0  0  0
   -6.7364  -16.3503   14.1404 H   0  0  0  0  0  0  0  0  0  0  0  0
  1  2  1  0
  2  3  2  0
  3  4  1  0
  4  5  2  0
  5  6  1  0
  6  7  2  0
  6  8  1  0
  8  9  1  0
  9 10  1  0
 10 11  2  0
 10 12  1  0
 12 13  1  0
 13 14  2  0
 14 15  1  0
 15 16  1  0
  5 17  1  0
 17 18  2  0
 18 19  1  0
 19 20  2  0
 20 21  1  0
 21  2  1  0
 20  4  1  0
 16 12  2  0
  1 22  1  0
  1 23  1  0
  1 24  1  0
  9 25  1  0
  9 26  1  0
 13 27  1  0
 14 28  1  0
 16 29  1  0
 17 30  1  0
 18 31  1  0
 19 32  1  0
M  END
>  <Energy>  (159) 
1743.7845084801763

>  <compound_id>  (159) 
11189

>  <target_id>  (159) 
1

>  <reference_id>  (159) 
2

>  <inspiration_ids>  (159) 
[2, 66]

>  <energy_score>  (159) 
1644.1488239074295

>  <distance_score>  (159) 
10.816782935559612

>  <path>  (159) 
/opt/xchem-fragalysis-2/maxwin/BulkDock/SCRATCH/511014/C11189-P2/C11189-P2.minimised.mol

>  <scratch_subdir>  (159) 
/opt/xchem-fragalysis-2/maxwin/BulkDock/SCRATCH/511014/C11189-P2

>  <fragmenstein_runtime>  (159) 
11.792913913726807

>  <fragmenstein_outcome>  (159) 
too moved

>  <fragmenstein_mode>  (159) 
expansion

>  <fragmenstein_error>  (159) 


$$$$
C11189-P66
     RDKit          3D

 32 34  0  0  0  0  0  0  0  0999 V2000
   -5.8662  -14.8216    9.9514 C   0  0  0  0  0  0  0  0  0  0  0  0
   -5.6656  -15.6484   11.6530 C   0  0  0  0  0  0  0  0  0  0  0  0
   -5.3057  -15.1894   12.8362 N   0  0  0  0  0  0  0  0  0  0  0  0
   -5.0008  -16.4138   13.9548 C   0  0  0  0  0  0  0  0  0  0  0  0
   -3.5178  -16.3145   14.9793 C   0  0  0  0  0  0  0  0  0  0  0  0
   -2.5994  -14.6847   14.2949 C   0  0  0  0  0  0  0  0  0  0  0  0
   -3.4344  -13.9583   13.6260 O   0  0  0  0  0  0  0  0  0  0  0  0
   -0.9080  -13.9572   14.1086 O   0  0  0  0  0  0  0  0  0  0  0  0
    0.3388  -12.6571   13.3397 C   0  0  0  0  0  0  0  0  0  0  0  0
    1.9281  -11.3190   13.0810 C   0  0  0  0  0  0  0  0  0  0  0  0
    1.9176  -11.1072   11.7901 O   0  0  0  0  0  0  0  0  0  0  0  0
    3.6007  -10.7106   14.0373 C   0  0  0  0  0  0  0  0  0  0  0  0
    4.0042   -9.4969   14.9521 C   0  0  0  0  0  0  0  0  0  0  0  0
    5.1838   -9.4481   15.6501 C   0  0  0  0  0  0  0  0  0  0  0  0
    6.0978  -10.7951   15.3307 S   0  0  0  0  0  0  0  0  0  0  0  0
    4.9347  -11.3152   14.1846 C   0  0  0  0  0  0  0  0  0  0  0  0
   -3.0906  -17.6573   15.1625 C   0  0  0  0  0  0  0  0  0  0  0  0
   -3.8198  -18.7369   14.4087 C   0  0  0  0  0  0  0  0  0  0  0  0
   -5.4715  -18.6732   13.6343 C   0  0  0  0  0  0  0  0  0  0  0  0
   -5.8905  -17.3967   13.4221 C   0  0  0  0  0  0  0  0  0  0  0  0
   -6.1017  -17.2414   12.0413 O   0  0  0  0  0  0  0  0  0  0  0  0
   -4.9975  -14.4919    9.3302 H   0  0  0  0  0  0  0  0  0  0  0  0
   -6.4659  -14.0227   10.3700 H   0  0  0  0  0  0  0  0  0  0  0  0
   -6.2768  -15.4017    9.1077 H   0  0  0  0  0  0  0  0  0  0  0  0
    1.0802  -13.1354   13.9070 H   0  0  0  0  0  0  0  0  0  0  0  0
    0.2890  -13.1219   12.3450 H   0  0  0  0  0  0  0  0  0  0  0  0
    3.4091   -8.6488   15.1868 H   0  0  0  0  0  0  0  0  0  0  0  0
    5.4762   -8.6732   16.3376 H   0  0  0  0  0  0  0  0  0  0  0  0
    5.3578  -12.1936   13.7342 H   0  0  0  0  0  0  0  0  0  0  0  0
   -2.1440  -17.9028   15.6243 H   0  0  0  0  0  0  0  0  0  0  0  0
   -3.2520  -19.6512   14.1542 H   0  0  0  0  0  0  0  0  0  0  0  0
   -5.5953  -19.3617   12.7400 H   0  0  0  0  0  0  0  0  0  0  0  0
  1  2  1  0
  2  3  2  0
  3  4  1  0
  4  5  2  0
  5  6  1  0
  6  7  2  0
  6  8  1  0
  8  9  1  0
  9 10  1  0
 10 11  2  0
 10 12  1  0
 12 13  1  0
 13 14  2  0
 14 15  1  0
 15 16  1  0
  5 17  1  0
 17 18  2  0
 18 19  1  0
 19 20  2  0
 20 21  1  0
 21  2  1  0
 20  4  1  0
 16 12  2  0
  1 22  1  0
  1 23  1  0
  1 24  1  0
  9 25  1  0
  9 26  1  0
 13 27  1  0
 14 28  1  0
 16 29  1  0
 17 30  1  0
 18 31  1  0
 19 32  1  0
M  END
>  <Energy>  (160) 
886.27351398206986

>  <compound_id>  (160) 
11189

>  <target_id>  (160) 
1

>  <reference_id>  (160) 
66

>  <inspiration_ids>  (160) 
[2, 66]

>  <energy_score>  (160) 
786.6378294093332

>  <distance_score>  (160) 
10.507642422887741

>  <path>  (160) 
/opt/xchem-fragalysis-2/maxwin/BulkDock/SCRATCH/511014/C11189-P66/C11189-P66.minimised.mol

>  <scratch_subdir>  (160) 
/opt/xchem-fragalysis-2/maxwin/BulkDock/SCRATCH/511014/C11189-P66

>  <fragmenstein_runtime>  (160) 
11.959450244903564

>  <fragmenstein_outcome>  (160) 
too moved

>  <fragmenstein_mode>  (160) 
expansion

>  <fragmenstein_error>  (160) 


$$$$
C11190-P2
     RDKit          3D

 35 37  0  0  0  0  0  0  0  0999 V2000
    3.8589  -12.3214   19.4995 C   0  0  0  0  0  0  0  0  0  0  0  0
    3.1162  -13.0035   18.3886 N   0  0  0  0  0  0  0  0  0  0  0  0
    4.0300  -11.8199   17.3918 C   0  0  0  0  0  0  0  0  0  0  0  0
    4.0359  -11.4804   15.4647 C   0  0  0  0  0  0  0  0  0  0  0  0
    3.7042  -10.4606   14.5342 C   0  0  0  0  0  0  0  0  0  0  0  0
    4.5967   -9.6689   13.9136 C   0  0  0  0  0  0  0  0  0  0  0  0
    5.8862  -10.6422   13.9499 S   0  0  0  0  0  0  0  0  0  0  0  0
    4.8358  -11.8411   14.2516 C   0  0  0  0  0  0  0  0  0  0  0  0
    3.2603  -14.5015   18.5155 C   0  0  0  0  0  0  0  0  0  0  0  0
    4.0882  -15.2542   18.0450 O   0  0  0  0  0  0  0  0  0  0  0  0
    2.0118  -15.1815   19.3378 C   0  0  0  0  0  0  0  0  0  0  0  0
    1.7889  -16.6327   19.1261 O   0  0  0  0  0  0  0  0  0  0  0  0
    0.5404  -17.2626   19.3054 C   0  0  0  0  0  0  0  0  0  0  0  0
   -0.5221  -16.6686   20.0152 C   0  0  0  0  0  0  0  0  0  0  0  0
   -1.8142  -17.2493   20.0760 C   0  0  0  0  0  0  0  0  0  0  0  0
   -2.1335  -18.4474   19.4253 C   0  0  0  0  0  0  0  0  0  0  0  0
   -1.0831  -19.0450   18.7478 C   0  0  0  0  0  0  0  0  0  0  0  0
   -1.1663  -20.1720   17.9761 O   0  0  0  0  0  0  0  0  0  0  0  0
    0.0989  -20.3227   17.5009 C   0  0  0  0  0  0  0  0  0  0  0  0
    0.9582  -19.4000   17.8849 N   0  0  0  0  0  0  0  0  0  0  0  0
    0.2243  -18.5430   18.6958 C   0  0  0  0  0  0  0  0  0  0  0  0
    3.4790  -12.7812   20.4234 H   0  0  0  0  0  0  0  0  0  0  0  0
    3.6562  -11.2539   19.6307 H   0  0  0  0  0  0  0  0  0  0  0  0
    4.9286  -12.5685   19.5249 H   0  0  0  0  0  0  0  0  0  0  0  0
    3.8213  -10.8095   17.7847 H   0  0  0  0  0  0  0  0  0  0  0  0
    4.9528  -12.3290   17.6264 H   0  0  0  0  0  0  0  0  0  0  0  0
    2.9855  -10.6611   13.7842 H   0  0  0  0  0  0  0  0  0  0  0  0
    4.4654   -8.6334   13.6064 H   0  0  0  0  0  0  0  0  0  0  0  0
    5.3921  -12.6964   13.9106 H   0  0  0  0  0  0  0  0  0  0  0  0
    1.1109  -14.6448   19.0218 H   0  0  0  0  0  0  0  0  0  0  0  0
    2.1969  -15.0255   20.4048 H   0  0  0  0  0  0  0  0  0  0  0  0
   -0.3674  -15.7208   20.5264 H   0  0  0  0  0  0  0  0  0  0  0  0
   -2.5944  -16.7286   20.6314 H   0  0  0  0  0  0  0  0  0  0  0  0
   -3.1288  -18.8717   19.4358 H   0  0  0  0  0  0  0  0  0  0  0  0
    0.2793  -21.1707   16.8550 H   0  0  0  0  0  0  0  0  0  0  0  0
  1  2  1  0
  2  3  1  0
  3  4  1  0
  4  5  1  0
  5  6  2  0
  6  7  1  0
  7  8  1  0
  2  9  1  0
  9 10  2  0
  9 11  1  0
 11 12  1  0
 12 13  1  0
 13 14  2  0
 14 15  1  0
 15 16  2  0
 16 17  1  0
 17 18  1  0
 18 19  1  0
 19 20  2  0
 20 21  1  0
  8  4  2  0
 21 13  1  0
 21 17  2  0
  1 22  1  0
  1 23  1  0
  1 24  1  0
  3 25  1  0
  3 26  1  0
  5 27  1  0
  6 28  1  0
  8 29  1  0
 11 30  1  0
 11 31  1  0
 14 32  1  0
 15 33  1  0
 16 34  1  0
 19 35  1  0
M  END
>  <Energy>  (161) 
367.58295416610594

>  <compound_id>  (161) 
11190

>  <target_id>  (161) 
1

>  <reference_id>  (161) 
2

>  <inspiration_ids>  (161) 
[2, 66]

>  <energy_score>  (161) 
274.5389359872646

>  <distance_score>  (161) 
13.644027673101391

>  <path>  (161) 
/opt/xchem-fragalysis-2/maxwin/BulkDock/SCRATCH/511014/C11190-P2/C11190-P2.minimised.mol

>  <scratch_subdir>  (161) 
/opt/xchem-fragalysis-2/maxwin/BulkDock/SCRATCH/511014/C11190-P2

>  <fragmenstein_runtime>  (161) 
14.702434539794922

>  <fragmenstein_outcome>  (161) 
too moved

>  <fragmenstein_mode>  (161) 
expansion

>  <fragmenstein_error>  (161) 


$$$$
C11190-P66
     RDKit          3D

 35 37  0  0  0  0  0  0  0  0999 V2000
    6.1412   -7.5235    7.3308 C   0  0  0  0  0  0  0  0  0  0  0  0
    6.2575   -8.2089    8.6723 N   0  0  0  0  0  0  0  0  0  0  0  0
    7.1869   -6.9482    8.8137 C   0  0  0  0  0  0  0  0  0  0  0  0
    8.6711   -7.0875    8.5173 C   0  0  0  0  0  0  0  0  0  0  0  0
    9.4745   -5.9953    8.0184 C   0  0  0  0  0  0  0  0  0  0  0  0
   10.8190   -6.2934    7.9762 C   0  0  0  0  0  0  0  0  0  0  0  0
   11.1358   -7.8913    8.4910 S   0  0  0  0  0  0  0  0  0  0  0  0
    9.4719   -8.1849    8.7746 C   0  0  0  0  0  0  0  0  0  0  0  0
    4.7638   -8.6472    9.5587 C   0  0  0  0  0  0  0  0  0  0  0  0
    4.2232   -7.9330   10.3464 O   0  0  0  0  0  0  0  0  0  0  0  0
    3.8298  -10.5184    9.5336 C   0  0  0  0  0  0  0  0  0  0  0  0
    3.2278  -12.1322   10.0497 O   0  0  0  0  0  0  0  0  0  0  0  0
    1.8801  -12.9235   10.6842 C   0  0  0  0  0  0  0  0  0  0  0  0
    0.9382  -12.2200   11.3716 C   0  0  0  0  0  0  0  0  0  0  0  0
    0.0750  -13.0892   12.0108 C   0  0  0  0  0  0  0  0  0  0  0  0
   -0.3599  -14.4340   11.6173 C   0  0  0  0  0  0  0  0  0  0  0  0
    0.3361  -15.2521   10.8510 C   0  0  0  0  0  0  0  0  0  0  0  0
    0.1380  -16.5019   10.3837 O   0  0  0  0  0  0  0  0  0  0  0  0
    1.2607  -16.7173    9.6402 C   0  0  0  0  0  0  0  0  0  0  0  0
    2.0519  -15.6637    9.5336 N   0  0  0  0  0  0  0  0  0  0  0  0
    1.4173  -14.6617   10.3452 C   0  0  0  0  0  0  0  0  0  0  0  0
    7.1186   -7.4622    6.8062 H   0  0  0  0  0  0  0  0  0  0  0  0
    5.6951   -6.5227    7.2228 H   0  0  0  0  0  0  0  0  0  0  0  0
    5.7790   -8.2054    6.5974 H   0  0  0  0  0  0  0  0  0  0  0  0
    7.1799   -6.8368    9.9095 H   0  0  0  0  0  0  0  0  0  0  0  0
    6.7873   -5.9383    8.5954 H   0  0  0  0  0  0  0  0  0  0  0  0
    9.0844   -5.0211    7.7523 H   0  0  0  0  0  0  0  0  0  0  0  0
   11.6344   -5.6499    7.6776 H   0  0  0  0  0  0  0  0  0  0  0  0
    9.1686   -9.1472    9.1562 H   0  0  0  0  0  0  0  0  0  0  0  0
    3.6576  -10.3919   10.5773 H   0  0  0  0  0  0  0  0  0  0  0  0
    4.5130  -10.9609    8.8125 H   0  0  0  0  0  0  0  0  0  0  0  0
    1.0615  -11.1829   11.6170 H   0  0  0  0  0  0  0  0  0  0  0  0
   -0.3263  -12.6591   12.9224 H   0  0  0  0  0  0  0  0  0  0  0  0
   -1.3813  -14.7439   11.5888 H   0  0  0  0  0  0  0  0  0  0  0  0
    1.3786  -17.7001    9.2042 H   0  0  0  0  0  0  0  0  0  0  0  0
  1  2  1  0
  2  3  1  0
  3  4  1  0
  4  5  1  0
  5  6  2  0
  6  7  1  0
  7  8  1  0
  2  9  1  0
  9 10  2  0
  9 11  1  0
 11 12  1  0
 12 13  1  0
 13 14  2  0
 14 15  1  0
 15 16  2  0
 16 17  1  0
 17 18  1  0
 18 19  1  0
 19 20  2  0
 20 21  1  0
  8  4  2  0
 21 13  1  0
 21 17  2  0
  1 22  1  0
  1 23  1  0
  1 24  1  0
  3 25  1  0
  3 26  1  0
  5 27  1  0
  6 28  1  0
  8 29  1  0
 11 30  1  0
 11 31  1  0
 14 32  1  0
 15 33  1  0
 16 34  1  0
 19 35  1  0
M  END
>  <Energy>  (162) 
532.32019948769937

>  <compound_id>  (162) 
11190

>  <target_id>  (162) 
1

>  <reference_id>  (162) 
66

>  <inspiration_ids>  (162) 
[2, 66]

>  <energy_score>  (162) 
439.27618130886043

>  <distance_score>  (162) 
11.64283461236229

>  <path>  (162) 
/opt/xchem-fragalysis-2/maxwin/BulkDock/SCRATCH/511014/C11190-P66/C11190-P66.minimised.mol

>  <scratch_subdir>  (162) 
/opt/xchem-fragalysis-2/maxwin/BulkDock/SCRATCH/511014/C11190-P66

>  <fragmenstein_runtime>  (162) 
12.11684274673462

>  <fragmenstein_outcome>  (162) 
too moved

>  <fragmenstein_mode>  (162) 
expansion

>  <fragmenstein_error>  (162) 


$$$$
C11193-P2
     RDKit          3D

 41 44  0  0  0  0  0  0  0  0999 V2000
    0.0938  -14.1951   11.9076 C   0  0  0  0  0  0  0  0  0  0  0  0
    0.8250  -14.5070   10.6546 C   0  0  0  0  0  0  0  0  0  0  0  0
    2.4119  -12.7908   10.5030 C   0  0  0  0  0  0  0  0  0  0  0  0
    4.0417  -11.2926   10.7397 C   0  0  0  0  0  0  0  0  0  0  0  0
    5.3905  -10.5454    9.1575 C   0  0  0  0  0  0  0  0  0  0  0  0
    7.2593   -9.6819    9.3169 C   0  0  0  0  0  0  0  0  0  0  0  0
    7.3953   -9.4432   12.0140 S   0  0  0  0  0  0  0  0  0  0  0  0
    5.4049  -10.9393   12.1722 C   0  0  0  0  0  0  0  0  0  0  0  0
   -0.0474  -16.4586   10.3072 N   0  0  0  0  0  0  0  0  0  0  0  0
   -1.7996  -17.1204    9.4380 C   0  0  0  0  0  0  0  0  0  0  0  0
   -2.4676  -16.2437    8.9301 O   0  0  0  0  0  0  0  0  0  0  0  0
   -2.9045  -19.0514    9.3519 C   0  0  0  0  0  0  0  0  0  0  0  0
   -4.3242  -19.9817   10.2690 C   0  0  0  0  0  0  0  0  0  0  0  0
   -6.3963  -20.5193   10.3441 C   0  0  0  0  0  0  0  0  0  0  0  0
   -6.5952  -22.0710    8.9889 C   0  0  0  0  0  0  0  0  0  0  0  0
   -7.2980  -23.2469    8.4018 N   0  0  0  0  0  0  0  0  0  0  0  0
   -6.5595  -23.7885    7.3545 C   0  0  0  0  0  0  0  0  0  0  0  0
   -7.1786  -24.8531    6.3954 C   0  0  0  0  0  0  0  0  0  0  0  0
   -6.9513  -24.7198    4.9122 C   0  0  0  0  0  0  0  0  0  0  0  0
   -8.3087  -24.4389    5.4891 C   0  0  0  0  0  0  0  0  0  0  0  0
   -5.0484  -23.3742    7.1847 O   0  0  0  0  0  0  0  0  0  0  0  0
   -4.5766  -22.1415    8.2518 C   0  0  0  0  0  0  0  0  0  0  0  0
   -3.3082  -20.6561    8.4482 C   0  0  0  0  0  0  0  0  0  0  0  0
    0.0424  -13.1196   12.0744 H   0  0  0  0  0  0  0  0  0  0  0  0
    0.5228  -14.6540   12.7750 H   0  0  0  0  0  0  0  0  0  0  0  0
   -0.8900  -14.6066   11.7380 H   0  0  0  0  0  0  0  0  0  0  0  0
    1.6075  -15.2813   10.5550 H   0  0  0  0  0  0  0  0  0  0  0  0
    1.7403  -12.0066   10.8858 H   0  0  0  0  0  0  0  0  0  0  0  0
    2.7982  -12.8632    9.4671 H   0  0  0  0  0  0  0  0  0  0  0  0
    4.8546  -10.4042    8.2585 H   0  0  0  0  0  0  0  0  0  0  0  0
    7.6748   -8.7955    8.8063 H   0  0  0  0  0  0  0  0  0  0  0  0
    5.3574  -11.1616   13.2453 H   0  0  0  0  0  0  0  0  0  0  0  0
    0.3954  -17.2434   10.7739 H   0  0  0  0  0  0  0  0  0  0  0  0
   -4.0318  -19.8028   11.3799 H   0  0  0  0  0  0  0  0  0  0  0  0
   -6.9693  -20.7127   11.2607 H   0  0  0  0  0  0  0  0  0  0  0  0
   -7.2144  -25.8523    6.8132 H   0  0  0  0  0  0  0  0  0  0  0  0
   -6.3705  -23.8799    4.5479 H   0  0  0  0  0  0  0  0  0  0  0  0
   -6.8204  -25.6297    4.3379 H   0  0  0  0  0  0  0  0  0  0  0  0
   -9.1000  -25.1578    5.3107 H   0  0  0  0  0  0  0  0  0  0  0  0
   -8.6477  -23.4095    5.5265 H   0  0  0  0  0  0  0  0  0  0  0  0
   -2.5801  -20.8100    7.6302 H   0  0  0  0  0  0  0  0  0  0  0  0
  1  2  1  0
  2  3  1  0
  3  4  1  0
  4  5  1  0
  5  6  2  0
  6  7  1  0
  7  8  1  0
  2  9  1  0
  9 10  1  0
 10 11  2  0
 10 12  1  0
 12 13  2  0
 13 14  1  0
 14 15  2  0
 15 16  1  0
 16 17  2  0
 17 18  1  0
 18 19  1  0
 19 20  1  0
 17 21  1  0
 21 22  1  0
 22 23  2  0
  8  4  2  0
 23 12  1  0
 22 15  1  0
 20 18  1  0
  1 24  1  0
  1 25  1  0
  1 26  1  0
  2 27  1  0
  3 28  1  0
  3 29  1  0
  5 30  1  0
  6 31  1  0
  8 32  1  0
  9 33  1  0
 13 34  1  0
 14 35  1  0
 18 36  1  0
 19 37  1  0
 19 38  1  0
 20 39  1  0
 20 40  1  0
 23 41  1  0
M  END
>  <Energy>  (163) 
3118.2293513556729

>  <compound_id>  (163) 
11193

>  <target_id>  (163) 
1

>  <reference_id>  (163) 
2

>  <inspiration_ids>  (163) 
[2, 66]

>  <energy_score>  (163) 
3034.499024012716

>  <distance_score>  (163) 
9.056361919804422

>  <path>  (163) 
/opt/xchem-fragalysis-2/maxwin/BulkDock/SCRATCH/511014/C11193-P2/C11193-P2.minimised.mol

>  <scratch_subdir>  (163) 
/opt/xchem-fragalysis-2/maxwin/BulkDock/SCRATCH/511014/C11193-P2

>  <fragmenstein_runtime>  (163) 
17.25554370880127

>  <fragmenstein_outcome>  (163) 
too moved

>  <fragmenstein_mode>  (163) 
expansion

>  <fragmenstein_error>  (163) 


$$$$
C11193-P66
     RDKit          3D

 41 44  0  0  0  0  0  0  0  0999 V2000
    0.4521  -16.0076   10.6803 C   0  0  0  0  0  0  0  0  0  0  0  0
    1.2037  -16.4847    9.4412 C   0  0  0  0  0  0  0  0  0  0  0  0
    2.7026  -15.4691    9.0920 C   0  0  0  0  0  0  0  0  0  0  0  0
    3.3289  -13.8396    9.7057 C   0  0  0  0  0  0  0  0  0  0  0  0
    4.3869  -13.1284    9.3274 C   0  0  0  0  0  0  0  0  0  0  0  0
    3.9492  -11.8002    9.0000 C   0  0  0  0  0  0  0  0  0  0  0  0
    3.2280  -11.2023   10.4491 S   0  0  0  0  0  0  0  0  0  0  0  0
    2.6591  -12.7613   10.4841 C   0  0  0  0  0  0  0  0  0  0  0  0
   -0.0547  -17.2951    8.4860 N   0  0  0  0  0  0  0  0  0  0  0  0
   -1.6990  -17.1473    8.5125 C   0  0  0  0  0  0  0  0  0  0  0  0
   -2.3095  -16.3581    9.1683 O   0  0  0  0  0  0  0  0  0  0  0  0
   -2.8860  -18.2796    7.6476 C   0  0  0  0  0  0  0  0  0  0  0  0
   -2.8866  -19.2815    6.0030 C   0  0  0  0  0  0  0  0  0  0  0  0
   -4.5405  -19.5570    5.0763 C   0  0  0  0  0  0  0  0  0  0  0  0
   -6.2659  -18.5509    5.4826 C   0  0  0  0  0  0  0  0  0  0  0  0
   -7.8475  -19.1616    5.1814 N   0  0  0  0  0  0  0  0  0  0  0  0
   -8.5830  -19.4665    6.3878 C   0  0  0  0  0  0  0  0  0  0  0  0
   -9.6461  -20.6084    6.5259 C   0  0  0  0  0  0  0  0  0  0  0  0
   -9.4287  -21.8949    5.7663 C   0  0  0  0  0  0  0  0  0  0  0  0
  -10.5222  -20.9578    5.3495 C   0  0  0  0  0  0  0  0  0  0  0  0
   -7.9272  -18.6000    7.8427 O   0  0  0  0  0  0  0  0  0  0  0  0
   -6.3849  -17.8937    7.4235 C   0  0  0  0  0  0  0  0  0  0  0  0
   -4.4986  -17.2941    8.0151 C   0  0  0  0  0  0  0  0  0  0  0  0
    0.1941  -16.8847   11.2753 H   0  0  0  0  0  0  0  0  0  0  0  0
    0.9887  -15.3341   11.3269 H   0  0  0  0  0  0  0  0  0  0  0  0
   -0.4689  -15.4810   10.4317 H   0  0  0  0  0  0  0  0  0  0  0  0
    1.7271  -17.4077    9.7344 H   0  0  0  0  0  0  0  0  0  0  0  0
    2.6725  -15.3935    8.0040 H   0  0  0  0  0  0  0  0  0  0  0  0
    3.5460  -16.1307    9.3361 H   0  0  0  0  0  0  0  0  0  0  0  0
    5.3034  -13.5972    9.0733 H   0  0  0  0  0  0  0  0  0  0  0  0
    4.4809  -11.0567    8.4352 H   0  0  0  0  0  0  0  0  0  0  0  0
    1.6662  -12.8434   10.9366 H   0  0  0  0  0  0  0  0  0  0  0  0
    0.2003  -17.9815    7.7868 H   0  0  0  0  0  0  0  0  0  0  0  0
   -1.9588  -19.7092    5.6298 H   0  0  0  0  0  0  0  0  0  0  0  0
   -4.5739  -20.1203    4.1367 H   0  0  0  0  0  0  0  0  0  0  0  0
  -10.0516  -20.6941    7.5260 H   0  0  0  0  0  0  0  0  0  0  0  0
   -8.5655  -21.9753    5.1152 H   0  0  0  0  0  0  0  0  0  0  0  0
   -9.7074  -22.8208    6.2544 H   0  0  0  0  0  0  0  0  0  0  0  0
  -11.5455  -21.2562    5.5392 H   0  0  0  0  0  0  0  0  0  0  0  0
  -10.3905  -20.3930    4.4324 H   0  0  0  0  0  0  0  0  0  0  0  0
   -4.2551  -16.2001    8.1319 H   0  0  0  0  0  0  0  0  0  0  0  0
  1  2  1  0
  2  3  1  0
  3  4  1  0
  4  5  1  0
  5  6  2  0
  6  7  1  0
  7  8  1  0
  2  9  1  0
  9 10  1  0
 10 11  2  0
 10 12  1  0
 12 13  2  0
 13 14  1  0
 14 15  2  0
 15 16  1  0
 16 17  2  0
 17 18  1  0
 18 19  1  0
 19 20  1  0
 17 21  1  0
 21 22  1  0
 22 23  2  0
  8  4  2  0
 23 12  1  0
 22 15  1  0
 20 18  1  0
  1 24  1  0
  1 25  1  0
  1 26  1  0
  2 27  1  0
  3 28  1  0
  3 29  1  0
  5 30  1  0
  6 31  1  0
  8 32  1  0
  9 33  1  0
 13 34  1  0
 14 35  1  0
 18 36  1  0
 19 37  1  0
 19 38  1  0
 20 39  1  0
 20 40  1  0
 23 41  1  0
M  END
>  <Energy>  (164) 
1116.4978922255748

>  <compound_id>  (164) 
11193

>  <target_id>  (164) 
1

>  <reference_id>  (164) 
66

>  <inspiration_ids>  (164) 
[2, 66]

>  <energy_score>  (164) 
1032.7675648826369

>  <distance_score>  (164) 
11.321927304528847

>  <path>  (164) 
/opt/xchem-fragalysis-2/maxwin/BulkDock/SCRATCH/511014/C11193-P66/C11193-P66.minimised.mol

>  <scratch_subdir>  (164) 
/opt/xchem-fragalysis-2/maxwin/BulkDock/SCRATCH/511014/C11193-P66

>  <fragmenstein_runtime>  (164) 
15.941150426864624

>  <fragmenstein_outcome>  (164) 
too moved

>  <fragmenstein_mode>  (164) 
expansion

>  <fragmenstein_error>  (164) 


$$$$
C11194-P2
     RDKit          3D

 46 49  0  0  0  0  0  0  0  0999 V2000
    2.7762  -16.6587    9.6667 C   0  0  0  0  0  0  0  0  0  0  0  0
    1.4158  -16.0270    9.3320 C   0  0  0  0  0  0  0  0  0  0  0  0
    0.7292  -17.1340    8.5656 N   0  0  0  0  0  0  0  0  0  0  0  0
   -0.6925  -17.3509    8.2474 C   0  0  0  0  0  0  0  0  0  0  0  0
   -1.6335  -16.6683    8.4473 O   0  0  0  0  0  0  0  0  0  0  0  0
   -0.6074  -18.7387    7.6905 N   0  0  0  0  0  0  0  0  0  0  0  0
   -1.6605  -19.6777    7.3429 C   0  0  0  0  0  0  0  0  0  0  0  0
   -1.1962  -21.1100    7.1725 C   0  0  0  0  0  0  0  0  0  0  0  0
   -1.0114  -21.2585    5.6810 C   0  0  0  0  0  0  0  0  0  0  0  0
   -2.3615  -21.5436    5.0526 C   0  0  0  0  0  0  0  0  0  0  0  0
   -3.1769  -20.7958    4.3287 N   0  0  0  0  0  0  0  0  0  0  0  0
   -4.3435  -21.5354    4.2683 C   0  0  0  0  0  0  0  0  0  0  0  0
   -5.5985  -21.2548    3.7098 C   0  0  0  0  0  0  0  0  0  0  0  0
   -6.6455  -22.1695    3.9271 C   0  0  0  0  0  0  0  0  0  0  0  0
   -6.4396  -23.3541    4.6461 C   0  0  0  0  0  0  0  0  0  0  0  0
   -5.1800  -23.6758    5.1626 C   0  0  0  0  0  0  0  0  0  0  0  0
   -4.1820  -22.7283    4.9507 C   0  0  0  0  0  0  0  0  0  0  0  0
   -2.9060  -22.7599    5.4222 O   0  0  0  0  0  0  0  0  0  0  0  0
   -0.2336  -19.9919    5.2607 C   0  0  0  0  0  0  0  0  0  0  0  0
   -0.4468  -18.6888    6.1417 C   0  0  0  0  0  0  0  0  0  0  0  0
    0.7070  -15.1126   10.6393 C   0  0  0  0  0  0  0  0  0  0  0  0
    0.7896  -13.5088   11.1694 C   0  0  0  0  0  0  0  0  0  0  0  0
    0.0442  -12.9594   12.1056 C   0  0  0  0  0  0  0  0  0  0  0  0
   -0.0812  -14.3236   12.9197 S   0  0  0  0  0  0  0  0  0  0  0  0
    0.1885  -15.5731   11.7632 C   0  0  0  0  0  0  0  0  0  0  0  0
    2.7752  -17.1553   10.6397 H   0  0  0  0  0  0  0  0  0  0  0  0
    3.5664  -15.9134    9.5813 H   0  0  0  0  0  0  0  0  0  0  0  0
    3.0783  -17.4211    8.9365 H   0  0  0  0  0  0  0  0  0  0  0  0
    1.6602  -15.3406    8.5221 H   0  0  0  0  0  0  0  0  0  0  0  0
    1.2510  -17.9622    8.3263 H   0  0  0  0  0  0  0  0  0  0  0  0
   -2.2673  -19.6899    8.2613 H   0  0  0  0  0  0  0  0  0  0  0  0
   -2.3766  -19.2969    6.6239 H   0  0  0  0  0  0  0  0  0  0  0  0
   -0.2555  -21.2870    7.7086 H   0  0  0  0  0  0  0  0  0  0  0  0
   -1.9365  -21.8114    7.5745 H   0  0  0  0  0  0  0  0  0  0  0  0
   -0.3873  -22.1363    5.4681 H   0  0  0  0  0  0  0  0  0  0  0  0
   -5.7604  -20.3329    3.1625 H   0  0  0  0  0  0  0  0  0  0  0  0
   -7.6328  -21.9525    3.5227 H   0  0  0  0  0  0  0  0  0  0  0  0
   -7.2693  -24.0438    4.7906 H   0  0  0  0  0  0  0  0  0  0  0  0
   -4.9918  -24.5865    5.7166 H   0  0  0  0  0  0  0  0  0  0  0  0
   -0.4071  -19.7488    4.2060 H   0  0  0  0  0  0  0  0  0  0  0  0
    0.8351  -20.2341    5.3479 H   0  0  0  0  0  0  0  0  0  0  0  0
   -1.2327  -18.0515    5.7054 H   0  0  0  0  0  0  0  0  0  0  0  0
    0.4576  -18.0805    5.9883 H   0  0  0  0  0  0  0  0  0  0  0  0
    1.5081  -12.7623   10.8068 H   0  0  0  0  0  0  0  0  0  0  0  0
   -0.0743  -11.9311   12.3808 H   0  0  0  0  0  0  0  0  0  0  0  0
    0.1919  -16.6349   11.9235 H   0  0  0  0  0  0  0  0  0  0  0  0
  1  2  1  0
  2  3  1  0
  3  4  1  0
  4  5  2  0
  4  6  1  0
  6  7  1  0
  7  8  1  0
  8  9  1  0
  9 10  1  0
 10 11  2  0
 11 12  1  0
 12 13  2  0
 13 14  1  0
 14 15  2  0
 15 16  1  0
 16 17  2  0
 17 18  1  0
  9 19  1  0
 19 20  1  0
  2 21  1  0
 21 22  1  0
 22 23  2  0
 23 24  1  0
 24 25  1  0
 20  6  1  0
 25 21  2  0
 18 10  1  0
 17 12  1  0
  1 26  1  0
  1 27  1  0
  1 28  1  0
  2 29  1  0
  3 30  1  0
  7 31  1  0
  7 32  1  0
  8 33  1  0
  8 34  1  0
  9 35  1  0
 13 36  1  0
 14 37  1  0
 15 38  1  0
 16 39  1  0
 19 40  1  0
 19 41  1  0
 20 42  1  0
 20 43  1  0
 22 44  1  0
 23 45  1  0
 25 46  1  0
M  END
>  <Energy>  (165) 
125.63111090889753

>  <compound_id>  (165) 
11194

>  <target_id>  (165) 
1

>  <reference_id>  (165) 
2

>  <inspiration_ids>  (165) 
[2, 66]

>  <energy_score>  (165) 
142.7836232323449

>  <distance_score>  (165) 
13.72273864114379

>  <path>  (165) 
/opt/xchem-fragalysis-2/maxwin/BulkDock/SCRATCH/511014/C11194-P2/C11194-P2.minimised.mol

>  <scratch_subdir>  (165) 
/opt/xchem-fragalysis-2/maxwin/BulkDock/SCRATCH/511014/C11194-P2

>  <fragmenstein_runtime>  (165) 
21.842076778411865

>  <fragmenstein_outcome>  (165) 
too moved

>  <fragmenstein_mode>  (165) 
expansion

>  <fragmenstein_error>  (165) 


$$$$
C11194-P66
     RDKit          3D

 46 49  0  0  0  0  0  0  0  0999 V2000
    3.4709   -4.4513   11.0128 C   0  0  0  0  0  0  0  0  0  0  0  0
    3.5085   -5.6464   12.0318 C   0  0  0  0  0  0  0  0  0  0  0  0
    3.0059   -7.3153   11.5278 N   0  0  0  0  0  0  0  0  0  0  0  0
    1.5527   -8.0058   11.4163 C   0  0  0  0  0  0  0  0  0  0  0  0
    0.5675   -7.4828   11.7549 O   0  0  0  0  0  0  0  0  0  0  0  0
    1.5998   -9.7997   10.8160 N   0  0  0  0  0  0  0  0  0  0  0  0
    0.5987  -10.6628   10.6034 C   0  0  0  0  0  0  0  0  0  0  0  0
   -0.3284  -12.1179   10.7084 C   0  0  0  0  0  0  0  0  0  0  0  0
   -0.3352  -14.0361   10.6373 C   0  0  0  0  0  0  0  0  0  0  0  0
   -1.9370  -15.0988    9.9659 C   0  0  0  0  0  0  0  0  0  0  0  0
   -3.1045  -14.5803    9.6687 N   0  0  0  0  0  0  0  0  0  0  0  0
   -4.2738  -15.1456    8.7301 C   0  0  0  0  0  0  0  0  0  0  0  0
   -5.6172  -14.8644    9.0642 C   0  0  0  0  0  0  0  0  0  0  0  0
   -6.9025  -15.2765    8.5641 C   0  0  0  0  0  0  0  0  0  0  0  0
   -7.1168  -16.6265    8.3534 C   0  0  0  0  0  0  0  0  0  0  0  0
   -5.9892  -17.3458    8.2148 C   0  0  0  0  0  0  0  0  0  0  0  0
   -4.1652  -16.5543    8.2536 C   0  0  0  0  0  0  0  0  0  0  0  0
   -2.5061  -16.5667    9.0568 O   0  0  0  0  0  0  0  0  0  0  0  0
    0.6305  -12.9933   11.8966 C   0  0  0  0  0  0  0  0  0  0  0  0
    1.8417  -11.3309   11.6910 C   0  0  0  0  0  0  0  0  0  0  0  0
    3.2413   -4.7974   13.4092 C   0  0  0  0  0  0  0  0  0  0  0  0
    4.0856   -3.6215   13.7130 C   0  0  0  0  0  0  0  0  0  0  0  0
    3.7528   -2.9243   14.8455 C   0  0  0  0  0  0  0  0  0  0  0  0
    2.4344   -3.6420   15.6227 S   0  0  0  0  0  0  0  0  0  0  0  0
    2.1923   -4.7217   14.3082 C   0  0  0  0  0  0  0  0  0  0  0  0
    3.2266   -3.4764   11.4493 H   0  0  0  0  0  0  0  0  0  0  0  0
    2.7262   -4.5533   10.2569 H   0  0  0  0  0  0  0  0  0  0  0  0
    4.4133   -4.2841   10.5029 H   0  0  0  0  0  0  0  0  0  0  0  0
    4.5386   -5.9050   12.2065 H   0  0  0  0  0  0  0  0  0  0  0  0
    3.6904   -7.9809   11.2576 H   0  0  0  0  0  0  0  0  0  0  0  0
    0.2998   -9.9743    9.8212 H   0  0  0  0  0  0  0  0  0  0  0  0
    0.2559  -10.4246   11.6447 H   0  0  0  0  0  0  0  0  0  0  0  0
   -1.0210  -11.8358    9.9672 H   0  0  0  0  0  0  0  0  0  0  0  0
   -0.8294  -11.7734   11.6186 H   0  0  0  0  0  0  0  0  0  0  0  0
    0.5077  -14.6870   10.3726 H   0  0  0  0  0  0  0  0  0  0  0  0
   -5.8328  -14.3194    9.9336 H   0  0  0  0  0  0  0  0  0  0  0  0
   -7.5820  -14.4460    8.7520 H   0  0  0  0  0  0  0  0  0  0  0  0
   -7.8912  -17.3528    8.2272 H   0  0  0  0  0  0  0  0  0  0  0  0
   -6.1631  -18.2249    8.9092 H   0  0  0  0  0  0  0  0  0  0  0  0
    0.0400  -12.7865   12.8127 H   0  0  0  0  0  0  0  0  0  0  0  0
    1.1378  -13.8643   12.3310 H   0  0  0  0  0  0  0  0  0  0  0  0
    2.6472  -11.7266   11.0331 H   0  0  0  0  0  0  0  0  0  0  0  0
    2.1624  -11.1253   12.6718 H   0  0  0  0  0  0  0  0  0  0  0  0
    4.8932   -3.2836   13.0771 H   0  0  0  0  0  0  0  0  0  0  0  0
    4.2136   -2.0273   15.2319 H   0  0  0  0  0  0  0  0  0  0  0  0
    1.2527   -5.2456   14.3215 H   0  0  0  0  0  0  0  0  0  0  0  0
  1  2  1  0
  2  3  1  0
  3  4  1  0
  4  5  2  0
  4  6  1  0
  6  7  1  0
  7  8  1  0
  8  9  1  0
  9 10  1  0
 10 11  2  0
 11 12  1  0
 12 13  2  0
 13 14  1  0
 14 15  2  0
 15 16  1  0
 16 17  2  0
 17 18  1  0
  9 19  1  0
 19 20  1  0
  2 21  1  0
 21 22  1  0
 22 23  2  0
 23 24  1  0
 24 25  1  0
 20  6  1  0
 25 21  2  0
 18 10  1  0
 17 12  1  0
  1 26  1  0
  1 27  1  0
  1 28  1  0
  2 29  1  0
  3 30  1  0
  7 31  1  0
  7 32  1  0
  8 33  1  0
  8 34  1  0
  9 35  1  0
 13 36  1  0
 14 37  1  0
 15 38  1  0
 16 39  1  0
 19 40  1  0
 19 41  1  0
 20 42  1  0
 20 43  1  0
 22 44  1  0
 23 45  1  0
 25 46  1  0
M  END
>  <Energy>  (166) 
1158.3584690406201

>  <compound_id>  (166) 
11194

>  <target_id>  (166) 
1

>  <reference_id>  (166) 
66

>  <inspiration_ids>  (166) 
[2, 66]

>  <energy_score>  (166) 
1175.5109813640702

>  <distance_score>  (166) 
9.967997547743352

>  <path>  (166) 
/opt/xchem-fragalysis-2/maxwin/BulkDock/SCRATCH/511014/C11194-P66/C11194-P66.minimised.mol

>  <scratch_subdir>  (166) 
/opt/xchem-fragalysis-2/maxwin/BulkDock/SCRATCH/511014/C11194-P66

>  <fragmenstein_runtime>  (166) 
16.827519416809082

>  <fragmenstein_outcome>  (166) 
too moved

>  <fragmenstein_mode>  (166) 
expansion

>  <fragmenstein_error>  (166) 


$$$$
C11195-P2
     RDKit          3D

 36 38  0  0  0  0  0  0  0  0999 V2000
  -10.1164  -21.8242    7.2331 C   0  0  0  0  0  0  0  0  0  0  0  0
   -9.3468  -21.3824    8.4145 C   0  0  0  0  0  0  0  0  0  0  0  0
   -8.6811  -20.2574    8.5911 N   0  0  0  0  0  0  0  0  0  0  0  0
   -8.0134  -20.4500    9.7859 C   0  0  0  0  0  0  0  0  0  0  0  0
   -7.0632  -19.6047   10.6286 C   0  0  0  0  0  0  0  0  0  0  0  0
   -6.0360  -19.8594   11.5890 C   0  0  0  0  0  0  0  0  0  0  0  0
   -4.0231  -19.8108   11.2465 C   0  0  0  0  0  0  0  0  0  0  0  0
   -3.2384  -20.5195   11.9350 O   0  0  0  0  0  0  0  0  0  0  0  0
   -3.1421  -18.9534    9.9215 O   0  0  0  0  0  0  0  0  0  0  0  0
   -2.3149  -17.3758    9.2877 C   0  0  0  0  0  0  0  0  0  0  0  0
   -1.8106  -17.8922    7.8995 C   0  0  0  0  0  0  0  0  0  0  0  0
   -0.8165  -16.2693    9.9413 C   0  0  0  0  0  0  0  0  0  0  0  0
   -0.6367  -14.9320   11.0198 C   0  0  0  0  0  0  0  0  0  0  0  0
   -0.1073  -13.5575   11.0600 C   0  0  0  0  0  0  0  0  0  0  0  0
   -0.0911  -12.6749   12.0887 C   0  0  0  0  0  0  0  0  0  0  0  0
    0.1265  -13.8596   13.1775 S   0  0  0  0  0  0  0  0  0  0  0  0
    0.1872  -15.1542   12.0853 C   0  0  0  0  0  0  0  0  0  0  0  0
   -6.8429  -21.1719   12.0569 C   0  0  0  0  0  0  0  0  0  0  0  0
   -7.9412  -22.0364   11.5343 C   0  0  0  0  0  0  0  0  0  0  0  0
   -8.4207  -21.6442   10.3250 C   0  0  0  0  0  0  0  0  0  0  0  0
   -9.2742  -22.2620    9.4648 O   0  0  0  0  0  0  0  0  0  0  0  0
   -9.6221  -22.6742    6.7539 H   0  0  0  0  0  0  0  0  0  0  0  0
  -11.1267  -22.1260    7.5239 H   0  0  0  0  0  0  0  0  0  0  0  0
  -10.1963  -21.0154    6.5009 H   0  0  0  0  0  0  0  0  0  0  0  0
   -7.8890  -19.4855   11.3794 H   0  0  0  0  0  0  0  0  0  0  0  0
   -3.1098  -16.7124    9.0002 H   0  0  0  0  0  0  0  0  0  0  0  0
   -1.8547  -17.0884    7.1600 H   0  0  0  0  0  0  0  0  0  0  0  0
   -2.3967  -18.7410    7.5559 H   0  0  0  0  0  0  0  0  0  0  0  0
   -0.7704  -18.2305    7.9245 H   0  0  0  0  0  0  0  0  0  0  0  0
   -0.3002  -16.8197   10.7263 H   0  0  0  0  0  0  0  0  0  0  0  0
    0.0157  -16.3892    9.2270 H   0  0  0  0  0  0  0  0  0  0  0  0
    0.9416  -13.3728   10.9142 H   0  0  0  0  0  0  0  0  0  0  0  0
    0.0877  -11.6144   12.0862 H   0  0  0  0  0  0  0  0  0  0  0  0
    0.6438  -16.1061   12.2629 H   0  0  0  0  0  0  0  0  0  0  0  0
   -6.3529  -21.8268   12.7424 H   0  0  0  0  0  0  0  0  0  0  0  0
   -8.1884  -22.9832   11.9894 H   0  0  0  0  0  0  0  0  0  0  0  0
  1  2  1  0
  2  3  2  0
  3  4  1  0
  4  5  2  0
  5  6  1  0
  6  7  1  0
  7  8  2  0
  7  9  1  0
  9 10  1  0
 10 11  1  0
 10 12  1  0
 12 13  1  0
 13 14  1  0
 14 15  2  0
 15 16  1  0
 16 17  1  0
  6 18  2  0
 18 19  1  0
 19 20  2  0
 20 21  1  0
 21  2  1  0
 20  4  1  0
 17 13  2  0
  1 22  1  0
  1 23  1  0
  1 24  1  0
  5 25  1  0
 10 26  1  0
 11 27  1  0
 11 28  1  0
 11 29  1  0
 12 30  1  0
 12 31  1  0
 14 32  1  0
 15 33  1  0
 17 34  1  0
 18 35  1  0
 19 36  1  0
M  END
>  <Energy>  (167) 
627.5389857118688

>  <compound_id>  (167) 
11195

>  <target_id>  (167) 
1

>  <reference_id>  (167) 
2

>  <inspiration_ids>  (167) 
[2, 66]

>  <energy_score>  (167) 
536.1391599055771

>  <distance_score>  (167) 
12.353547172126245

>  <path>  (167) 
/opt/xchem-fragalysis-2/maxwin/BulkDock/SCRATCH/511014/C11195-P2/C11195-P2.minimised.mol

>  <scratch_subdir>  (167) 
/opt/xchem-fragalysis-2/maxwin/BulkDock/SCRATCH/511014/C11195-P2

>  <fragmenstein_runtime>  (167) 
13.829360246658325

>  <fragmenstein_outcome>  (167) 
too moved

>  <fragmenstein_mode>  (167) 
expansion

>  <fragmenstein_error>  (167) 


$$$$
C11195-P66
     RDKit          3D

 36 38  0  0  0  0  0  0  0  0999 V2000
   -6.1926  -17.4304    8.2938 C   0  0  0  0  0  0  0  0  0  0  0  0
   -4.1613  -16.9498    8.1302 C   0  0  0  0  0  0  0  0  0  0  0  0
   -3.7128  -15.8331    8.7147 N   0  0  0  0  0  0  0  0  0  0  0  0
   -2.4063  -15.9725    9.2827 C   0  0  0  0  0  0  0  0  0  0  0  0
   -1.6533  -15.1643   10.2942 C   0  0  0  0  0  0  0  0  0  0  0  0
   -0.2454  -15.0250   10.6069 C   0  0  0  0  0  0  0  0  0  0  0  0
    0.4661  -13.6554   11.5812 C   0  0  0  0  0  0  0  0  0  0  0  0
    0.2364  -13.7655   12.7859 O   0  0  0  0  0  0  0  0  0  0  0  0
    1.3456  -12.4255   11.1759 O   0  0  0  0  0  0  0  0  0  0  0  0
    2.5474  -11.0323   11.5357 C   0  0  0  0  0  0  0  0  0  0  0  0
    3.4031  -11.4765   10.3842 C   0  0  0  0  0  0  0  0  0  0  0  0
    3.8241  -10.2869   12.9806 C   0  0  0  0  0  0  0  0  0  0  0  0
    4.0508   -8.3006   12.8795 C   0  0  0  0  0  0  0  0  0  0  0  0
    3.2640   -7.4489   11.5635 C   0  0  0  0  0  0  0  0  0  0  0  0
    3.4922   -6.1372   11.3158 C   0  0  0  0  0  0  0  0  0  0  0  0
    4.4929   -5.6146   12.4676 S   0  0  0  0  0  0  0  0  0  0  0  0
    4.8768   -7.2291   13.3126 C   0  0  0  0  0  0  0  0  0  0  0  0
    0.3471  -16.1576    9.9749 C   0  0  0  0  0  0  0  0  0  0  0  0
   -0.3817  -17.1339    8.9778 C   0  0  0  0  0  0  0  0  0  0  0  0
   -1.7946  -17.0162    8.6727 C   0  0  0  0  0  0  0  0  0  0  0  0
   -2.9122  -17.8228    8.1063 O   0  0  0  0  0  0  0  0  0  0  0  0
   -6.9074  -17.7979    7.5916 H   0  0  0  0  0  0  0  0  0  0  0  0
   -6.1915  -18.2289    9.0404 H   0  0  0  0  0  0  0  0  0  0  0  0
   -6.7248  -16.5044    8.6601 H   0  0  0  0  0  0  0  0  0  0  0  0
   -2.3642  -14.7440   10.9758 H   0  0  0  0  0  0  0  0  0  0  0  0
    1.9095  -10.2498   11.1173 H   0  0  0  0  0  0  0  0  0  0  0  0
    3.9130  -12.3760   10.7198 H   0  0  0  0  0  0  0  0  0  0  0  0
    3.9346  -10.6055   10.0263 H   0  0  0  0  0  0  0  0  0  0  0  0
    3.0510  -11.9386    9.4771 H   0  0  0  0  0  0  0  0  0  0  0  0
    4.8378  -10.7507   13.0946 H   0  0  0  0  0  0  0  0  0  0  0  0
    3.5233  -10.5258   14.0066 H   0  0  0  0  0  0  0  0  0  0  0  0
    2.2696   -7.7619   11.2727 H   0  0  0  0  0  0  0  0  0  0  0  0
    2.9598   -5.4447   10.6828 H   0  0  0  0  0  0  0  0  0  0  0  0
    5.7416   -7.3320   13.9265 H   0  0  0  0  0  0  0  0  0  0  0  0
    1.4082  -16.3546   10.1290 H   0  0  0  0  0  0  0  0  0  0  0  0
    0.1815  -17.9798    8.5876 H   0  0  0  0  0  0  0  0  0  0  0  0
  1  2  1  0
  2  3  2  0
  3  4  1  0
  4  5  2  0
  5  6  1  0
  6  7  1  0
  7  8  2  0
  7  9  1  0
  9 10  1  0
 10 11  1  0
 10 12  1  0
 12 13  1  0
 13 14  1  0
 14 15  2  0
 15 16  1  0
 16 17  1  0
  6 18  2  0
 18 19  1  0
 19 20  2  0
 20 21  1  0
 21  2  1  0
 20  4  1  0
 17 13  2  0
  1 22  1  0
  1 23  1  0
  1 24  1  0
  5 25  1  0
 10 26  1  0
 11 27  1  0
 11 28  1  0
 11 29  1  0
 12 30  1  0
 12 31  1  0
 14 32  1  0
 15 33  1  0
 17 34  1  0
 18 35  1  0
 19 36  1  0
M  END
>  <Energy>  (168) 
580.1869075105667

>  <compound_id>  (168) 
11195

>  <target_id>  (168) 
1

>  <reference_id>  (168) 
66

>  <inspiration_ids>  (168) 
[2, 66]

>  <energy_score>  (168) 
488.78708170427507

>  <distance_score>  (168) 
9.969573714555338

>  <path>  (168) 
/opt/xchem-fragalysis-2/maxwin/BulkDock/SCRATCH/511014/C11195-P66/C11195-P66.minimised.mol

>  <scratch_subdir>  (168) 
/opt/xchem-fragalysis-2/maxwin/BulkDock/SCRATCH/511014/C11195-P66

>  <fragmenstein_runtime>  (168) 
12.144883155822754

>  <fragmenstein_outcome>  (168) 
too moved

>  <fragmenstein_mode>  (168) 
expansion

>  <fragmenstein_error>  (168) 


$$$$
C11196-P2
     RDKit          3D

 36 39  0  0  0  0  0  0  0  0999 V2000
   -1.6021  -12.8576    3.8671 C   0  0  0  0  0  0  0  0  0  0  0  0
   -1.0109  -14.0601    4.2739 C   0  0  0  0  0  0  0  0  0  0  0  0
    0.1392  -14.0503    5.0693 C   0  0  0  0  0  0  0  0  0  0  0  0
    0.5969  -12.7863    5.4625 C   0  0  0  0  0  0  0  0  0  0  0  0
    1.5461  -12.5053    6.4011 O   0  0  0  0  0  0  0  0  0  0  0  0
    1.5821  -11.1275    6.5903 C   0  0  0  0  0  0  0  0  0  0  0  0
    2.5483  -10.4818    7.6284 N   0  0  0  0  0  0  0  0  0  0  0  0
    4.2899  -10.6502    8.3866 C   0  0  0  0  0  0  0  0  0  0  0  0
    6.0207   -9.7711    7.8547 C   0  0  0  0  0  0  0  0  0  0  0  0
    6.2469   -8.1233    7.6874 C   0  0  0  0  0  0  0  0  0  0  0  0
    6.5186   -7.5326    6.3656 C   0  0  0  0  0  0  0  0  0  0  0  0
    6.8052   -6.1898    6.3678 C   0  0  0  0  0  0  0  0  0  0  0  0
    6.7588   -5.5789    7.9317 S   0  0  0  0  0  0  0  0  0  0  0  0
    6.6250   -7.1512    8.6084 C   0  0  0  0  0  0  0  0  0  0  0  0
    7.4964  -10.3423    7.8715 N   0  0  0  0  0  0  0  0  0  0  0  0
    8.0364  -11.6206    7.7536 C   0  0  0  0  0  0  0  0  0  0  0  0
    9.3815  -11.5073    7.4936 C   0  0  0  0  0  0  0  0  0  0  0  0
    9.6256  -10.1381    7.5277 C   0  0  0  0  0  0  0  0  0  0  0  0
    8.5265   -9.4395    7.7861 N   0  0  0  0  0  0  0  0  0  0  0  0
    0.7744  -10.5270    5.7152 N   0  0  0  0  0  0  0  0  0  0  0  0
    0.0752  -11.5723    5.0723 C   0  0  0  0  0  0  0  0  0  0  0  0
   -1.0547  -11.6045    4.2321 C   0  0  0  0  0  0  0  0  0  0  0  0
   -2.4943  -12.8821    3.2443 H   0  0  0  0  0  0  0  0  0  0  0  0
   -1.4475  -15.0090    3.9712 H   0  0  0  0  0  0  0  0  0  0  0  0
    0.5996  -14.9579    5.4383 H   0  0  0  0  0  0  0  0  0  0  0  0
    2.6052   -9.5839    7.1578 H   0  0  0  0  0  0  0  0  0  0  0  0
    4.3111  -11.7075    8.5911 H   0  0  0  0  0  0  0  0  0  0  0  0
    4.1106  -10.3411    9.4303 H   0  0  0  0  0  0  0  0  0  0  0  0
    6.1447   -9.8915    6.7996 H   0  0  0  0  0  0  0  0  0  0  0  0
    6.5004   -8.0796    5.4370 H   0  0  0  0  0  0  0  0  0  0  0  0
    7.0129   -5.5520    5.5205 H   0  0  0  0  0  0  0  0  0  0  0  0
    6.7092   -7.1681    9.6751 H   0  0  0  0  0  0  0  0  0  0  0  0
    7.4717  -12.5212    7.9274 H   0  0  0  0  0  0  0  0  0  0  0  0
   10.0851  -12.3136    7.3471 H   0  0  0  0  0  0  0  0  0  0  0  0
   10.5596   -9.6079    7.3939 H   0  0  0  0  0  0  0  0  0  0  0  0
   -1.5226  -10.6784    3.9164 H   0  0  0  0  0  0  0  0  0  0  0  0
  1  2  2  0
  2  3  1  0
  3  4  2  0
  4  5  1  0
  5  6  1  0
  6  7  1  0
  7  8  1  0
  8  9  1  0
  9 10  1  0
 10 11  1  0
 11 12  2  0
 12 13  1  0
 13 14  1  0
  9 15  1  0
 15 16  1  0
 16 17  2  0
 17 18  1  0
 18 19  2  0
  6 20  2  0
 20 21  1  0
 21 22  2  0
 22  1  1  0
 21  4  1  0
 14 10  2  0
 19 15  1  0
  1 23  1  0
  2 24  1  0
  3 25  1  0
  7 26  1  0
  8 27  1  0
  8 28  1  0
  9 29  1  0
 11 30  1  0
 12 31  1  0
 14 32  1  0
 16 33  1  0
 17 34  1  0
 18 35  1  0
 22 36  1  0
M  END
>  <Energy>  (169) 
255.59423426048318

>  <compound_id>  (169) 
11196

>  <target_id>  (169) 
1

>  <reference_id>  (169) 
2

>  <inspiration_ids>  (169) 
[2, 66]

>  <energy_score>  (169) 
185.62445056626484

>  <distance_score>  (169) 
13.375653024987985

>  <path>  (169) 
/opt/xchem-fragalysis-2/maxwin/BulkDock/SCRATCH/511014/C11196-P2/C11196-P2.minimised.mol

>  <scratch_subdir>  (169) 
/opt/xchem-fragalysis-2/maxwin/BulkDock/SCRATCH/511014/C11196-P2

>  <fragmenstein_runtime>  (169) 
9.564481735229492

>  <fragmenstein_outcome>  (169) 
too moved

>  <fragmenstein_mode>  (169) 
expansion

>  <fragmenstein_error>  (169) 


$$$$
C11196-P66
     RDKit          3D

 36 39  0  0  0  0  0  0  0  0999 V2000
   -0.7382  -18.5320    8.6542 C   0  0  0  0  0  0  0  0  0  0  0  0
   -0.4624  -18.4805   10.0244 C   0  0  0  0  0  0  0  0  0  0  0  0
    0.7876  -18.0483   10.4986 C   0  0  0  0  0  0  0  0  0  0  0  0
    1.7298  -17.6805    9.5344 C   0  0  0  0  0  0  0  0  0  0  0  0
    3.0129  -17.2059    9.7225 O   0  0  0  0  0  0  0  0  0  0  0  0
    3.5191  -17.0116    8.4566 C   0  0  0  0  0  0  0  0  0  0  0  0
    4.8064  -16.5422    8.2605 N   0  0  0  0  0  0  0  0  0  0  0  0
    5.8366  -16.1746    9.3543 C   0  0  0  0  0  0  0  0  0  0  0  0
    7.3949  -15.9229    8.8971 C   0  0  0  0  0  0  0  0  0  0  0  0
    8.3440  -14.7604    9.4539 C   0  0  0  0  0  0  0  0  0  0  0  0
    9.1200  -14.7307   10.6806 C   0  0  0  0  0  0  0  0  0  0  0  0
   10.0201  -13.6875   10.7774 C   0  0  0  0  0  0  0  0  0  0  0  0
   10.0092  -12.7178    9.3836 S   0  0  0  0  0  0  0  0  0  0  0  0
    8.7549  -13.6649    8.6907 C   0  0  0  0  0  0  0  0  0  0  0  0
    8.1319  -17.2103    8.9645 N   0  0  0  0  0  0  0  0  0  0  0  0
    8.5518  -17.9566    7.8926 C   0  0  0  0  0  0  0  0  0  0  0  0
    9.1531  -19.0772    8.4130 C   0  0  0  0  0  0  0  0  0  0  0  0
    9.0557  -18.9206    9.8058 C   0  0  0  0  0  0  0  0  0  0  0  0
    8.4448  -17.7850   10.1515 N   0  0  0  0  0  0  0  0  0  0  0  0
    2.6449  -17.3187    7.5055 N   0  0  0  0  0  0  0  0  0  0  0  0
    1.5025  -17.7335    8.1716 C   0  0  0  0  0  0  0  0  0  0  0  0
    0.2399  -18.1634    7.7118 C   0  0  0  0  0  0  0  0  0  0  0  0
   -1.7137  -18.8756    8.3164 H   0  0  0  0  0  0  0  0  0  0  0  0
   -1.2239  -18.7890   10.7387 H   0  0  0  0  0  0  0  0  0  0  0  0
    1.0198  -18.0031   11.5575 H   0  0  0  0  0  0  0  0  0  0  0  0
    5.2123  -16.8743    7.3890 H   0  0  0  0  0  0  0  0  0  0  0  0
    5.4930  -15.2350    9.7902 H   0  0  0  0  0  0  0  0  0  0  0  0
    5.7855  -16.9801   10.0881 H   0  0  0  0  0  0  0  0  0  0  0  0
    7.3662  -15.7480    7.8146 H   0  0  0  0  0  0  0  0  0  0  0  0
    9.1031  -15.4981   11.4399 H   0  0  0  0  0  0  0  0  0  0  0  0
   10.7140  -13.4893   11.5824 H   0  0  0  0  0  0  0  0  0  0  0  0
    8.4184  -13.4010    7.6974 H   0  0  0  0  0  0  0  0  0  0  0  0
    8.3899  -17.6340    6.8734 H   0  0  0  0  0  0  0  0  0  0  0  0
    9.5990  -19.8938    7.8637 H   0  0  0  0  0  0  0  0  0  0  0  0
    9.4058  -19.5872   10.5835 H   0  0  0  0  0  0  0  0  0  0  0  0
    0.0390  -18.2130    6.6474 H   0  0  0  0  0  0  0  0  0  0  0  0
  1  2  2  0
  2  3  1  0
  3  4  2  0
  4  5  1  0
  5  6  1  0
  6  7  1  0
  7  8  1  0
  8  9  1  0
  9 10  1  0
 10 11  1  0
 11 12  2  0
 12 13  1  0
 13 14  1  0
  9 15  1  0
 15 16  1  0
 16 17  2  0
 17 18  1  0
 18 19  2  0
  6 20  2  0
 20 21  1  0
 21 22  2  0
 22  1  1  0
 21  4  1  0
 14 10  2  0
 19 15  1  0
  1 23  1  0
  2 24  1  0
  3 25  1  0
  7 26  1  0
  8 27  1  0
  8 28  1  0
  9 29  1  0
 11 30  1  0
 12 31  1  0
 14 32  1  0
 16 33  1  0
 17 34  1  0
 18 35  1  0
 22 36  1  0
M  END
>  <Energy>  (170) 
52.253566664025328

>  <compound_id>  (170) 
11196

>  <target_id>  (170) 
1

>  <reference_id>  (170) 
66

>  <inspiration_ids>  (170) 
[2, 66]

>  <energy_score>  (170) 
-17.71621703019649

>  <distance_score>  (170) 
13.196251552826732

>  <path>  (170) 
/opt/xchem-fragalysis-2/maxwin/BulkDock/SCRATCH/511014/C11196-P66/C11196-P66.minimised.mol

>  <scratch_subdir>  (170) 
/opt/xchem-fragalysis-2/maxwin/BulkDock/SCRATCH/511014/C11196-P66

>  <fragmenstein_runtime>  (170) 
12.031505823135376

>  <fragmenstein_outcome>  (170) 
too moved

>  <fragmenstein_mode>  (170) 
expansion

>  <fragmenstein_error>  (170) 


$$$$
C12757-P3
     RDKit          3D

 43 45  0  0  0  0  0  0  0  0999 V2000
  -12.2931  -22.3748   29.1991 O   0  0  0  0  0  0  0  0  0  0  0  0
  -11.8005  -21.5586   28.4925 C   0  0  0  0  0  0  0  0  0  0  0  0
  -11.3023  -20.2721   29.1250 C   0  0  0  0  0  0  0  0  0  0  0  0
  -11.6239  -20.1694   30.6252 C   0  0  0  0  0  0  0  0  0  0  0  0
  -10.7791  -20.7850   31.5984 N   0  0  0  0  0  0  0  0  0  0  0  0
  -10.4481  -20.1693   32.7632 C   0  0  0  0  0  0  0  0  0  0  0  0
   -9.3657  -20.7041   33.2685 N   0  0  0  0  0  0  0  0  0  0  0  0
   -9.1991  -21.8436   32.5551 C   0  0  0  0  0  0  0  0  0  0  0  0
   -8.2298  -22.8128   32.6767 C   0  0  0  0  0  0  0  0  0  0  0  0
   -8.4108  -24.0065   31.9979 C   0  0  0  0  0  0  0  0  0  0  0  0
   -9.5028  -24.2106   31.1898 C   0  0  0  0  0  0  0  0  0  0  0  0
  -10.4017  -23.2088   30.9674 C   0  0  0  0  0  0  0  0  0  0  0  0
  -10.2023  -22.0085   31.6160 C   0  0  0  0  0  0  0  0  0  0  0  0
  -11.5461  -21.5755   27.1087 N   0  0  0  0  0  0  0  0  0  0  0  0
  -11.8869  -22.5480   26.0915 C   0  0  0  0  0  0  0  0  0  0  0  0
  -13.2067  -22.2725   25.4677 C   0  0  0  0  0  0  0  0  0  0  0  0
  -13.8933  -23.5835   25.7598 C   0  0  0  0  0  0  0  0  0  0  0  0
  -13.6173  -24.1468   27.1066 N   0  0  0  0  0  0  0  0  0  0  0  0
  -13.7923  -25.4659   27.6177 C   0  0  0  0  0  0  0  0  0  0  0  0
  -14.1248  -26.4820   27.0639 O   0  0  0  0  0  0  0  0  0  0  0  0
  -13.4813  -25.4897   29.1233 C   0  0  0  0  0  0  0  0  0  0  0  0
  -12.1513  -25.8914   29.4161 O   0  0  0  0  0  0  0  0  0  0  0  0
  -12.1803  -23.9461   26.6515 C   0  0  0  0  0  0  0  0  0  0  0  0
  -10.2422  -20.1652   28.9074 H   0  0  0  0  0  0  0  0  0  0  0  0
  -11.8306  -19.4573   28.6192 H   0  0  0  0  0  0  0  0  0  0  0  0
  -11.6358  -19.1036   30.8685 H   0  0  0  0  0  0  0  0  0  0  0  0
  -12.5813  -20.5797   30.8847 H   0  0  0  0  0  0  0  0  0  0  0  0
  -10.9838  -19.3066   33.1372 H   0  0  0  0  0  0  0  0  0  0  0  0
   -7.4122  -22.6757   33.3633 H   0  0  0  0  0  0  0  0  0  0  0  0
   -7.7070  -24.8033   32.1774 H   0  0  0  0  0  0  0  0  0  0  0  0
   -9.7136  -25.1505   30.7145 H   0  0  0  0  0  0  0  0  0  0  0  0
  -11.2523  -23.4782   30.3826 H   0  0  0  0  0  0  0  0  0  0  0  0
  -11.1902  -20.6723   26.8303 H   0  0  0  0  0  0  0  0  0  0  0  0
  -11.0640  -22.5733   25.3716 H   0  0  0  0  0  0  0  0  0  0  0  0
  -13.1437  -22.0869   24.3912 H   0  0  0  0  0  0  0  0  0  0  0  0
  -13.7252  -21.4295   25.9282 H   0  0  0  0  0  0  0  0  0  0  0  0
  -14.9781  -23.4088   25.7506 H   0  0  0  0  0  0  0  0  0  0  0  0
  -13.7651  -24.3539   24.9870 H   0  0  0  0  0  0  0  0  0  0  0  0
  -14.1775  -26.1783   29.6141 H   0  0  0  0  0  0  0  0  0  0  0  0
  -13.6560  -24.5044   29.5526 H   0  0  0  0  0  0  0  0  0  0  0  0
  -12.0822  -26.8055   29.0836 H   0  0  0  0  0  0  0  0  0  0  0  0
  -11.5452  -24.1293   27.5280 H   0  0  0  0  0  0  0  0  0  0  0  0
  -11.8843  -24.7661   25.9820 H   0  0  0  0  0  0  0  0  0  0  0  0
  1  2  2  0
  2  3  1  0
  3  4  1  0
  4  5  1  0
  5  6  1  0
  6  7  2  0
  7  8  1  0
  8  9  2  0
  9 10  1  0
 10 11  2  0
 11 12  1  0
 12 13  2  0
  2 14  1  0
 14 15  1  0
 15 16  1  0
 16 17  1  0
 17 18  1  0
 18 19  1  0
 19 20  2  0
 19 21  1  0
 21 22  1  0
 18 23  1  0
 13  5  1  0
 23 15  1  0
 13  8  1  0
  3 24  1  0
  3 25  1  0
  4 26  1  0
  4 27  1  0
  6 28  1  0
  9 29  1  0
 10 30  1  0
 11 31  1  0
 12 32  1  0
 14 33  1  0
 15 34  1  0
 16 35  1  0
 16 36  1  0
 17 37  1  0
 17 38  1  0
 21 39  1  0
 21 40  1  0
 22 41  1  0
 23 42  1  0
 23 43  1  0
M  END
>  <Energy>  (171) 
106.53253528504098

>  <compound_id>  (171) 
12757

>  <target_id>  (171) 
1

>  <reference_id>  (171) 
3

>  <inspiration_ids>  (171) 
[3, 94]

>  <energy_score>  (171) 
66.2727107979841

>  <distance_score>  (171) 
3.8371743329247634

>  <path>  (171) 
/opt/xchem-fragalysis-2/maxwin/BulkDock/SCRATCH/511014/C12757-P3/C12757-P3.minimised.mol

>  <scratch_subdir>  (171) 
/opt/xchem-fragalysis-2/maxwin/BulkDock/SCRATCH/511014/C12757-P3

>  <fragmenstein_runtime>  (171) 
7.275672674179077

>  <fragmenstein_outcome>  (171) 
too moved

>  <fragmenstein_mode>  (171) 
expansion

>  <fragmenstein_error>  (171) 


$$$$
C12757-P94
     RDKit          3D

 43 45  0  0  0  0  0  0  0  0999 V2000
  -12.0970  -24.3361   28.7121 O   0  0  0  0  0  0  0  0  0  0  0  0
  -11.9627  -23.2562   28.2207 C   0  0  0  0  0  0  0  0  0  0  0  0
  -11.6388  -22.0730   29.0860 C   0  0  0  0  0  0  0  0  0  0  0  0
  -12.2148  -21.9882   30.4720 C   0  0  0  0  0  0  0  0  0  0  0  0
  -11.8334  -22.6130   31.6831 N   0  0  0  0  0  0  0  0  0  0  0  0
  -12.2724  -22.1323   32.8912 C   0  0  0  0  0  0  0  0  0  0  0  0
  -12.0208  -22.9624   33.8610 N   0  0  0  0  0  0  0  0  0  0  0  0
  -11.4427  -24.0218   33.2360 C   0  0  0  0  0  0  0  0  0  0  0  0
  -11.0633  -25.2328   33.7575 C   0  0  0  0  0  0  0  0  0  0  0  0
  -10.6922  -26.2159   32.8580 C   0  0  0  0  0  0  0  0  0  0  0  0
  -10.3901  -25.9752   31.5451 C   0  0  0  0  0  0  0  0  0  0  0  0
  -10.6150  -24.7175   31.0662 C   0  0  0  0  0  0  0  0  0  0  0  0
  -11.2406  -23.8000   31.8892 C   0  0  0  0  0  0  0  0  0  0  0  0
  -11.9635  -22.8476   26.8502 N   0  0  0  0  0  0  0  0  0  0  0  0
  -12.2206  -23.5918   25.6347 C   0  0  0  0  0  0  0  0  0  0  0  0
  -13.4640  -24.3855   25.4892 C   0  0  0  0  0  0  0  0  0  0  0  0
  -12.8840  -25.7736   25.6018 C   0  0  0  0  0  0  0  0  0  0  0  0
  -11.6821  -25.8193   26.4699 N   0  0  0  0  0  0  0  0  0  0  0  0
  -10.6616  -26.7576   26.5649 C   0  0  0  0  0  0  0  0  0  0  0  0
  -10.4365  -27.7347   25.9069 O   0  0  0  0  0  0  0  0  0  0  0  0
   -9.8451  -26.3503   27.8430 C   0  0  0  0  0  0  0  0  0  0  0  0
   -9.6783  -24.9736   28.0738 O   0  0  0  0  0  0  0  0  0  0  0  0
  -11.2675  -24.7115   25.5912 C   0  0  0  0  0  0  0  0  0  0  0  0
  -10.5686  -21.9132   29.0584 H   0  0  0  0  0  0  0  0  0  0  0  0
  -12.0746  -21.2052   28.6036 H   0  0  0  0  0  0  0  0  0  0  0  0
  -11.9141  -20.9827   30.7198 H   0  0  0  0  0  0  0  0  0  0  0  0
  -13.3016  -22.0634   30.4295 H   0  0  0  0  0  0  0  0  0  0  0  0
  -12.7904  -21.1942   33.0089 H   0  0  0  0  0  0  0  0  0  0  0  0
  -11.2266  -25.4551   34.7935 H   0  0  0  0  0  0  0  0  0  0  0  0
  -10.6705  -27.2267   33.2164 H   0  0  0  0  0  0  0  0  0  0  0  0
   -9.9978  -26.7682   30.9217 H   0  0  0  0  0  0  0  0  0  0  0  0
  -10.3706  -24.4958   30.0594 H   0  0  0  0  0  0  0  0  0  0  0  0
  -11.9055  -21.8382   26.8065 H   0  0  0  0  0  0  0  0  0  0  0  0
  -12.0880  -22.9054   24.7934 H   0  0  0  0  0  0  0  0  0  0  0  0
  -14.1983  -24.2118   26.2420 H   0  0  0  0  0  0  0  0  0  0  0  0
  -13.9759  -24.2386   24.5334 H   0  0  0  0  0  0  0  0  0  0  0  0
  -13.6290  -26.3928   26.1186 H   0  0  0  0  0  0  0  0  0  0  0  0
  -12.7159  -26.3047   24.6582 H   0  0  0  0  0  0  0  0  0  0  0  0
   -8.8375  -26.7406   27.7943 H   0  0  0  0  0  0  0  0  0  0  0  0
  -10.3705  -26.7686   28.7050 H   0  0  0  0  0  0  0  0  0  0  0  0
  -10.6222  -24.7479   28.1603 H   0  0  0  0  0  0  0  0  0  0  0  0
  -10.9731  -25.0716   24.6103 H   0  0  0  0  0  0  0  0  0  0  0  0
  -10.3136  -24.3375   25.9636 H   0  0  0  0  0  0  0  0  0  0  0  0
  1  2  2  0
  2  3  1  0
  3  4  1  0
  4  5  1  0
  5  6  1  0
  6  7  2  0
  7  8  1  0
  8  9  2  0
  9 10  1  0
 10 11  2  0
 11 12  1  0
 12 13  2  0
  2 14  1  0
 14 15  1  0
 15 16  1  0
 16 17  1  0
 17 18  1  0
 18 19  1  0
 19 20  2  0
 19 21  1  0
 21 22  1  0
 18 23  1  0
 13  5  1  0
 23 15  1  0
 13  8  1  0
  3 24  1  0
  3 25  1  0
  4 26  1  0
  4 27  1  0
  6 28  1  0
  9 29  1  0
 10 30  1  0
 11 31  1  0
 12 32  1  0
 14 33  1  0
 15 34  1  0
 16 35  1  0
 16 36  1  0
 17 37  1  0
 17 38  1  0
 21 39  1  0
 21 40  1  0
 22 41  1  0
 23 42  1  0
 23 43  1  0
M  END
>  <Energy>  (172) 
128.57344138925222

>  <compound_id>  (172) 
12757

>  <target_id>  (172) 
1

>  <reference_id>  (172) 
94

>  <inspiration_ids>  (172) 
[3, 94]

>  <energy_score>  (172) 
88.31361690219924

>  <distance_score>  (172) 
3.614962108737024

>  <path>  (172) 
/opt/xchem-fragalysis-2/maxwin/BulkDock/SCRATCH/511014/C12757-P94/C12757-P94.minimised.mol

>  <scratch_subdir>  (172) 
/opt/xchem-fragalysis-2/maxwin/BulkDock/SCRATCH/511014/C12757-P94

>  <fragmenstein_runtime>  (172) 
7.991146802902222

>  <fragmenstein_outcome>  (172) 
too moved

>  <fragmenstein_mode>  (172) 
expansion

>  <fragmenstein_error>  (172) 


$$$$
C12758-P3
     RDKit          3D

 46 48  0  0  0  0  0  0  0  0999 V2000
  -13.1851  -23.4847   28.5503 O   0  0  0  0  0  0  0  0  0  0  0  0
  -12.6792  -23.1447   27.5771 C   0  0  0  0  0  0  0  0  0  0  0  0
  -11.4224  -22.3439   27.6365 C   0  0  0  0  0  0  0  0  0  0  0  0
  -11.2098  -21.9697   29.1019 C   0  0  0  0  0  0  0  0  0  0  0  0
  -11.0703  -23.0404   30.0586 N   0  0  0  0  0  0  0  0  0  0  0  0
  -11.0932  -24.3937   29.9279 C   0  0  0  0  0  0  0  0  0  0  0  0
  -10.3640  -24.9805   30.8349 N   0  0  0  0  0  0  0  0  0  0  0  0
   -9.8126  -23.9416   31.4963 C   0  0  0  0  0  0  0  0  0  0  0  0
   -8.6875  -23.8828   32.2666 C   0  0  0  0  0  0  0  0  0  0  0  0
   -8.3712  -22.6434   32.8069 C   0  0  0  0  0  0  0  0  0  0  0  0
   -9.1944  -21.5300   32.6869 C   0  0  0  0  0  0  0  0  0  0  0  0
  -10.3146  -21.5612   31.8953 C   0  0  0  0  0  0  0  0  0  0  0  0
  -10.4820  -22.7647   31.2431 C   0  0  0  0  0  0  0  0  0  0  0  0
  -13.1031  -23.3152   26.1507 N   0  0  0  0  0  0  0  0  0  0  0  0
  -14.2921  -23.8605   25.6003 C   0  0  0  0  0  0  0  0  0  0  0  0
  -15.4878  -23.6558   26.5800 C   0  0  0  0  0  0  0  0  0  0  0  0
  -16.7542  -23.5107   25.7639 C   0  0  0  0  0  0  0  0  0  0  0  0
  -17.0995  -24.9697   25.4758 C   0  0  0  0  0  0  0  0  0  0  0  0
  -16.6922  -25.7258   26.7402 C   0  0  0  0  0  0  0  0  0  0  0  0
  -15.8974  -24.7604   27.4544 N   0  0  0  0  0  0  0  0  0  0  0  0
  -15.5973  -24.9131   28.7847 C   0  0  0  0  0  0  0  0  0  0  0  0
  -16.3523  -24.4436   29.6439 O   0  0  0  0  0  0  0  0  0  0  0  0
  -14.3972  -25.7586   29.2191 C   0  0  0  0  0  0  0  0  0  0  0  0
  -13.7981  -25.2278   30.4175 O   0  0  0  0  0  0  0  0  0  0  0  0
  -10.5999  -22.9377   27.2372 H   0  0  0  0  0  0  0  0  0  0  0  0
  -11.5343  -21.4322   27.0417 H   0  0  0  0  0  0  0  0  0  0  0  0
  -11.9856  -21.2923   29.4603 H   0  0  0  0  0  0  0  0  0  0  0  0
  -10.2739  -21.3978   29.1239 H   0  0  0  0  0  0  0  0  0  0  0  0
  -11.5653  -24.9363   29.1244 H   0  0  0  0  0  0  0  0  0  0  0  0
   -8.0560  -24.7401   32.4222 H   0  0  0  0  0  0  0  0  0  0  0  0
   -7.4700  -22.5693   33.3997 H   0  0  0  0  0  0  0  0  0  0  0  0
   -8.9137  -20.6060   33.1808 H   0  0  0  0  0  0  0  0  0  0  0  0
  -10.9077  -20.6761   31.6980 H   0  0  0  0  0  0  0  0  0  0  0  0
  -12.4572  -22.8167   25.5443 H   0  0  0  0  0  0  0  0  0  0  0  0
  -14.4299  -23.2645   24.7013 H   0  0  0  0  0  0  0  0  0  0  0  0
  -14.1201  -24.9112   25.3547 H   0  0  0  0  0  0  0  0  0  0  0  0
  -15.3403  -22.7729   27.1961 H   0  0  0  0  0  0  0  0  0  0  0  0
  -16.6723  -22.8737   24.8814 H   0  0  0  0  0  0  0  0  0  0  0  0
  -17.5498  -23.0757   26.3850 H   0  0  0  0  0  0  0  0  0  0  0  0
  -18.1626  -25.1008   25.2508 H   0  0  0  0  0  0  0  0  0  0  0  0
  -16.5416  -25.3771   24.6287 H   0  0  0  0  0  0  0  0  0  0  0  0
  -16.0888  -26.6116   26.5189 H   0  0  0  0  0  0  0  0  0  0  0  0
  -17.5513  -26.0185   27.3519 H   0  0  0  0  0  0  0  0  0  0  0  0
  -14.7605  -26.7664   29.4443 H   0  0  0  0  0  0  0  0  0  0  0  0
  -13.6513  -25.8412   28.4259 H   0  0  0  0  0  0  0  0  0  0  0  0
  -14.5688  -24.9493   30.9569 H   0  0  0  0  0  0  0  0  0  0  0  0
  1  2  2  0
  2  3  1  0
  3  4  1  0
  4  5  1  0
  5  6  1  0
  6  7  2  0
  7  8  1  0
  8  9  2  0
  9 10  1  0
 10 11  2  0
 11 12  1  0
 12 13  2  0
  2 14  1  0
 14 15  1  0
 15 16  1  0
 16 17  1  0
 17 18  1  0
 18 19  1  0
 19 20  1  0
 20 21  1  0
 21 22  2  0
 21 23  1  0
 23 24  1  0
 13  5  1  0
 20 16  1  0
 13  8  1  0
  3 25  1  0
  3 26  1  0
  4 27  1  0
  4 28  1  0
  6 29  1  0
  9 30  1  0
 10 31  1  0
 11 32  1  0
 12 33  1  0
 14 34  1  0
 15 35  1  0
 15 36  1  0
 16 37  1  0
 17 38  1  0
 17 39  1  0
 18 40  1  0
 18 41  1  0
 19 42  1  0
 19 43  1  0
 23 44  1  0
 23 45  1  0
 24 46  1  0
M  END
>  <Energy>  (173) 
108.22152316971845

>  <compound_id>  (173) 
12758

>  <target_id>  (173) 
1

>  <reference_id>  (173) 
3

>  <inspiration_ids>  (173) 
[3, 94]

>  <energy_score>  (173) 
46.866250635450484

>  <distance_score>  (173) 
4.6656595233893965

>  <path>  (173) 
/opt/xchem-fragalysis-2/maxwin/BulkDock/SCRATCH/511014/C12758-P3/C12758-P3.minimised.mol

>  <scratch_subdir>  (173) 
/opt/xchem-fragalysis-2/maxwin/BulkDock/SCRATCH/511014/C12758-P3

>  <fragmenstein_runtime>  (173) 
5.256046295166016

>  <fragmenstein_outcome>  (173) 
too moved

>  <fragmenstein_mode>  (173) 
expansion

>  <fragmenstein_error>  (173) 


$$$$
C12758-P94
     RDKit          3D

 46 48  0  0  0  0  0  0  0  0999 V2000
  -10.4789  -25.9716   34.3454 O   0  0  0  0  0  0  0  0  0  0  0  0
  -10.3896  -25.1516   33.4846 C   0  0  0  0  0  0  0  0  0  0  0  0
   -9.2051  -25.0999   32.5517 C   0  0  0  0  0  0  0  0  0  0  0  0
   -9.5882  -25.1139   31.0972 C   0  0  0  0  0  0  0  0  0  0  0  0
  -10.4289  -26.0557   30.4487 N   0  0  0  0  0  0  0  0  0  0  0  0
  -11.0575  -27.1361   30.9566 C   0  0  0  0  0  0  0  0  0  0  0  0
  -11.8926  -27.6462   30.0752 N   0  0  0  0  0  0  0  0  0  0  0  0
  -11.7819  -26.8405   28.9610 C   0  0  0  0  0  0  0  0  0  0  0  0
  -12.5318  -26.8347   27.7835 C   0  0  0  0  0  0  0  0  0  0  0  0
  -12.3006  -25.8532   26.8146 C   0  0  0  0  0  0  0  0  0  0  0  0
  -11.3421  -24.8711   27.0227 C   0  0  0  0  0  0  0  0  0  0  0  0
  -10.5985  -24.8424   28.2025 C   0  0  0  0  0  0  0  0  0  0  0  0
  -10.8608  -25.8351   29.1586 C   0  0  0  0  0  0  0  0  0  0  0  0
  -11.2172  -24.0382   33.1712 N   0  0  0  0  0  0  0  0  0  0  0  0
  -12.4595  -23.6073   33.7264 C   0  0  0  0  0  0  0  0  0  0  0  0
  -13.0417  -22.4054   32.9675 C   0  0  0  0  0  0  0  0  0  0  0  0
  -12.9023  -22.4936   31.4268 C   0  0  0  0  0  0  0  0  0  0  0  0
  -11.7356  -21.6558   30.9785 C   0  0  0  0  0  0  0  0  0  0  0  0
  -11.2911  -20.9952   32.2531 C   0  0  0  0  0  0  0  0  0  0  0  0
  -12.3012  -21.1918   33.2611 N   0  0  0  0  0  0  0  0  0  0  0  0
  -12.5407  -20.3739   34.3377 C   0  0  0  0  0  0  0  0  0  0  0  0
  -11.9729  -20.5457   35.4083 O   0  0  0  0  0  0  0  0  0  0  0  0
  -13.5992  -19.2769   34.3577 C   0  0  0  0  0  0  0  0  0  0  0  0
  -14.7860  -19.5829   33.6415 O   0  0  0  0  0  0  0  0  0  0  0  0
   -8.4404  -25.8279   32.7747 H   0  0  0  0  0  0  0  0  0  0  0  0
   -8.7060  -24.1462   32.7583 H   0  0  0  0  0  0  0  0  0  0  0  0
  -10.1243  -24.1957   30.9073 H   0  0  0  0  0  0  0  0  0  0  0  0
   -8.6845  -25.0985   30.5006 H   0  0  0  0  0  0  0  0  0  0  0  0
  -10.8871  -27.5114   31.9545 H   0  0  0  0  0  0  0  0  0  0  0  0
  -13.3376  -27.5441   27.6733 H   0  0  0  0  0  0  0  0  0  0  0  0
  -12.8943  -25.8503   25.9033 H   0  0  0  0  0  0  0  0  0  0  0  0
  -11.1949  -24.1022   26.2678 H   0  0  0  0  0  0  0  0  0  0  0  0
   -9.8734  -24.0576   28.3600 H   0  0  0  0  0  0  0  0  0  0  0  0
  -10.7957  -23.5177   32.4336 H   0  0  0  0  0  0  0  0  0  0  0  0
  -12.2248  -23.3179   34.7418 H   0  0  0  0  0  0  0  0  0  0  0  0
  -13.1360  -24.4530   33.7555 H   0  0  0  0  0  0  0  0  0  0  0  0
  -14.0832  -22.2701   33.2772 H   0  0  0  0  0  0  0  0  0  0  0  0
  -13.8083  -22.0918   30.9660 H   0  0  0  0  0  0  0  0  0  0  0  0
  -12.6973  -23.5026   31.0678 H   0  0  0  0  0  0  0  0  0  0  0  0
  -11.9694  -21.0336   30.1202 H   0  0  0  0  0  0  0  0  0  0  0  0
  -10.9652  -22.3017   30.5815 H   0  0  0  0  0  0  0  0  0  0  0  0
  -10.8208  -20.0337   32.3079 H   0  0  0  0  0  0  0  0  0  0  0  0
  -10.4608  -21.6376   32.5008 H   0  0  0  0  0  0  0  0  0  0  0  0
  -13.9025  -19.1152   35.3989 H   0  0  0  0  0  0  0  0  0  0  0  0
  -13.1651  -18.3277   34.0364 H   0  0  0  0  0  0  0  0  0  0  0  0
  -15.1676  -20.3685   34.0770 H   0  0  0  0  0  0  0  0  0  0  0  0
  1  2  2  0
  2  3  1  0
  3  4  1  0
  4  5  1  0
  5  6  1  0
  6  7  2  0
  7  8  1  0
  8  9  2  0
  9 10  1  0
 10 11  2  0
 11 12  1  0
 12 13  2  0
  2 14  1  0
 14 15  1  0
 15 16  1  0
 16 17  1  0
 17 18  1  0
 18 19  1  0
 19 20  1  0
 20 21  1  0
 21 22  2  0
 21 23  1  0
 23 24  1  0
 13  5  1  0
 20 16  1  0
 13  8  1  0
  3 25  1  0
  3 26  1  0
  4 27  1  0
  4 28  1  0
  6 29  1  0
  9 30  1  0
 10 31  1  0
 11 32  1  0
 12 33  1  0
 14 34  1  0
 15 35  1  0
 15 36  1  0
 16 37  1  0
 17 38  1  0
 17 39  1  0
 18 40  1  0
 18 41  1  0
 19 42  1  0
 19 43  1  0
 23 44  1  0
 23 45  1  0
 24 46  1  0
M  END
>  <Energy>  (174) 
89.073383864923798

>  <compound_id>  (174) 
12758

>  <target_id>  (174) 
1

>  <reference_id>  (174) 
94

>  <inspiration_ids>  (174) 
[3, 94]

>  <energy_score>  (174) 
21.247783326082754

>  <distance_score>  (174) 
4.639680029798535

>  <path>  (174) 
/opt/xchem-fragalysis-2/maxwin/BulkDock/SCRATCH/511014/C12758-P94/C12758-P94.minimised.mol

>  <scratch_subdir>  (174) 
/opt/xchem-fragalysis-2/maxwin/BulkDock/SCRATCH/511014/C12758-P94

>  <fragmenstein_runtime>  (174) 
7.2744975090026855

>  <fragmenstein_outcome>  (174) 
too moved

>  <fragmenstein_mode>  (174) 
expansion

>  <fragmenstein_error>  (174) 


$$$$
C12760-P3
     RDKit          3D

 50 53  0  0  0  0  0  0  0  0999 V2000
  -11.7735  -26.3345   32.2406 O   0  0  0  0  0  0  0  0  0  0  0  0
  -12.6413  -25.9323   31.5222 C   0  0  0  0  0  0  0  0  0  0  0  0
  -14.0684  -26.4269   31.7587 C   0  0  0  0  0  0  0  0  0  0  0  0
  -14.2610  -27.5128   30.8285 N   0  0  0  0  0  0  0  0  0  0  0  0
  -13.6148  -28.7145   30.9429 C   0  0  0  0  0  0  0  0  0  0  0  0
  -13.4775  -29.2927   29.7743 N   0  0  0  0  0  0  0  0  0  0  0  0
  -14.0891  -28.4512   28.8800 C   0  0  0  0  0  0  0  0  0  0  0  0
  -14.1888  -28.5503   27.4879 C   0  0  0  0  0  0  0  0  0  0  0  0
  -14.8723  -27.5513   26.7859 C   0  0  0  0  0  0  0  0  0  0  0  0
  -15.4660  -26.4835   27.4592 C   0  0  0  0  0  0  0  0  0  0  0  0
  -15.3694  -26.3564   28.8473 C   0  0  0  0  0  0  0  0  0  0  0  0
  -14.6602  -27.3571   29.5228 C   0  0  0  0  0  0  0  0  0  0  0  0
  -12.5810  -25.0906   30.3517 N   0  0  0  0  0  0  0  0  0  0  0  0
  -11.4395  -24.5469   29.6211 C   0  0  0  0  0  0  0  0  0  0  0  0
  -11.8154  -24.4689   28.0951 C   0  0  0  0  0  0  0  0  0  0  0  0
  -12.5050  -23.2818   27.5643 N   0  0  0  0  0  0  0  0  0  0  0  0
  -13.5658  -23.6320   26.6052 C   0  0  0  0  0  0  0  0  0  0  0  0
  -13.6383  -22.4841   25.6046 C   0  0  0  0  0  0  0  0  0  0  0  0
  -12.5364  -21.5342   26.0248 C   0  0  0  0  0  0  0  0  0  0  0  0
  -11.5805  -22.4335   26.7821 C   0  0  0  0  0  0  0  0  0  0  0  0
  -10.7907  -23.3932   30.3717 C   0  0  0  0  0  0  0  0  0  0  0  0
   -9.8617  -23.6857   31.3878 C   0  0  0  0  0  0  0  0  0  0  0  0
   -9.4067  -22.7107   32.2775 C   0  0  0  0  0  0  0  0  0  0  0  0
   -9.9053  -21.4215   32.2013 C   0  0  0  0  0  0  0  0  0  0  0  0
  -10.7778  -21.0899   31.1716 C   0  0  0  0  0  0  0  0  0  0  0  0
  -11.1674  -22.0544   30.2349 C   0  0  0  0  0  0  0  0  0  0  0  0
  -14.1812  -26.8092   32.7778 H   0  0  0  0  0  0  0  0  0  0  0  0
  -14.8113  -25.6432   31.5913 H   0  0  0  0  0  0  0  0  0  0  0  0
  -13.2058  -29.0770   31.8779 H   0  0  0  0  0  0  0  0  0  0  0  0
  -13.7487  -29.3978   26.9742 H   0  0  0  0  0  0  0  0  0  0  0  0
  -14.9675  -27.6307   25.7058 H   0  0  0  0  0  0  0  0  0  0  0  0
  -16.0230  -25.7402   26.8924 H   0  0  0  0  0  0  0  0  0  0  0  0
  -15.8326  -25.5215   29.3625 H   0  0  0  0  0  0  0  0  0  0  0  0
  -13.5062  -25.0222   29.9450 H   0  0  0  0  0  0  0  0  0  0  0  0
  -10.7257  -25.3758   29.6778 H   0  0  0  0  0  0  0  0  0  0  0  0
  -10.9412  -24.6735   27.4805 H   0  0  0  0  0  0  0  0  0  0  0  0
  -12.4434  -25.3526   27.9083 H   0  0  0  0  0  0  0  0  0  0  0  0
  -14.5182  -23.7447   27.1304 H   0  0  0  0  0  0  0  0  0  0  0  0
  -13.3562  -24.5611   26.0613 H   0  0  0  0  0  0  0  0  0  0  0  0
  -14.6167  -21.9978   25.5901 H   0  0  0  0  0  0  0  0  0  0  0  0
  -13.4448  -22.8549   24.5923 H   0  0  0  0  0  0  0  0  0  0  0  0
  -12.0783  -21.0448   25.1617 H   0  0  0  0  0  0  0  0  0  0  0  0
  -12.9260  -20.7580   26.6900 H   0  0  0  0  0  0  0  0  0  0  0  0
  -10.8964  -21.8598   27.4108 H   0  0  0  0  0  0  0  0  0  0  0  0
  -10.9881  -23.0188   26.0662 H   0  0  0  0  0  0  0  0  0  0  0  0
   -9.5183  -24.7025   31.5518 H   0  0  0  0  0  0  0  0  0  0  0  0
   -8.7009  -22.9793   33.0573 H   0  0  0  0  0  0  0  0  0  0  0  0
   -9.6009  -20.6712   32.9236 H   0  0  0  0  0  0  0  0  0  0  0  0
  -11.1569  -20.0722   31.0913 H   0  0  0  0  0  0  0  0  0  0  0  0
  -11.8350  -21.7315   29.4483 H   0  0  0  0  0  0  0  0  0  0  0  0
  1  2  2  0
  2  3  1  0
  3  4  1  0
  4  5  1  0
  5  6  2  0
  6  7  1  0
  7  8  2  0
  8  9  1  0
  9 10  2  0
 10 11  1  0
 11 12  2  0
  2 13  1  0
 13 14  1  0
 14 15  1  0
 15 16  1  0
 16 17  1  0
 17 18  1  0
 18 19  1  0
 19 20  1  0
 14 21  1  0
 21 22  2  0
 22 23  1  0
 23 24  2  0
 24 25  1  0
 25 26  2  0
 12  4  1  0
 20 16  1  0
 26 21  1  0
 12  7  1  0
  3 27  1  0
  3 28  1  0
  5 29  1  0
  8 30  1  0
  9 31  1  0
 10 32  1  0
 11 33  1  0
 13 34  1  0
 14 35  1  0
 15 36  1  0
 15 37  1  0
 17 38  1  0
 17 39  1  0
 18 40  1  0
 18 41  1  0
 19 42  1  0
 19 43  1  0
 20 44  1  0
 20 45  1  0
 22 46  1  0
 23 47  1  0
 24 48  1  0
 25 49  1  0
 26 50  1  0
M  END
>  <Energy>  (175) 
84.208212047976431

>  <compound_id>  (175) 
12760

>  <target_id>  (175) 
1

>  <reference_id>  (175) 
3

>  <inspiration_ids>  (175) 
[3, 94]

>  <energy_score>  (175) 
-8.18772436267517

>  <distance_score>  (175) 
3.662259896775663

>  <path>  (175) 
/opt/xchem-fragalysis-2/maxwin/BulkDock/SCRATCH/511014/C12760-P3/C12760-P3.minimised.mol

>  <scratch_subdir>  (175) 
/opt/xchem-fragalysis-2/maxwin/BulkDock/SCRATCH/511014/C12760-P3

>  <fragmenstein_runtime>  (175) 
15.364880323410034

>  <fragmenstein_outcome>  (175) 
too moved

>  <fragmenstein_mode>  (175) 
expansion

>  <fragmenstein_error>  (175) 


$$$$
C12760-P94
     RDKit          3D

 50 53  0  0  0  0  0  0  0  0999 V2000
  -13.8284  -21.5169   31.7703 O   0  0  0  0  0  0  0  0  0  0  0  0
  -13.4156  -22.6453   31.7383 C   0  0  0  0  0  0  0  0  0  0  0  0
  -13.4275  -23.5535   33.0255 C   0  0  0  0  0  0  0  0  0  0  0  0
  -12.3523  -24.6284   33.1702 N   0  0  0  0  0  0  0  0  0  0  0  0
  -11.5698  -24.5558   34.2917 C   0  0  0  0  0  0  0  0  0  0  0  0
  -10.5082  -25.3172   34.3080 N   0  0  0  0  0  0  0  0  0  0  0  0
  -10.4120  -25.6758   33.0204 C   0  0  0  0  0  0  0  0  0  0  0  0
   -9.2652  -25.9004   32.2560 C   0  0  0  0  0  0  0  0  0  0  0  0
   -9.4557  -26.7652   31.1798 C   0  0  0  0  0  0  0  0  0  0  0  0
  -10.6125  -26.8216   30.5095 C   0  0  0  0  0  0  0  0  0  0  0  0
  -11.6090  -26.0825   31.0446 C   0  0  0  0  0  0  0  0  0  0  0  0
  -11.6284  -25.5448   32.3542 C   0  0  0  0  0  0  0  0  0  0  0  0
  -12.7456  -23.3951   30.6597 N   0  0  0  0  0  0  0  0  0  0  0  0
  -12.2830  -22.9755   29.3555 C   0  0  0  0  0  0  0  0  0  0  0  0
  -11.3895  -23.9044   28.3856 C   0  0  0  0  0  0  0  0  0  0  0  0
  -11.7346  -24.5766   27.1425 N   0  0  0  0  0  0  0  0  0  0  0  0
  -12.5550  -25.7631   27.1033 C   0  0  0  0  0  0  0  0  0  0  0  0
  -13.2745  -25.6934   25.7616 C   0  0  0  0  0  0  0  0  0  0  0  0
  -13.3274  -24.2098   25.4833 C   0  0  0  0  0  0  0  0  0  0  0  0
  -11.9852  -23.7464   25.9869 C   0  0  0  0  0  0  0  0  0  0  0  0
  -11.1528  -22.4235   30.2273 C   0  0  0  0  0  0  0  0  0  0  0  0
  -10.5584  -23.2499   31.1981 C   0  0  0  0  0  0  0  0  0  0  0  0
  -10.3550  -22.8261   32.4629 C   0  0  0  0  0  0  0  0  0  0  0  0
  -11.1074  -21.7856   32.8386 C   0  0  0  0  0  0  0  0  0  0  0  0
  -11.1287  -20.8220   31.9216 C   0  0  0  0  0  0  0  0  0  0  0  0
  -11.1820  -21.1407   30.5651 C   0  0  0  0  0  0  0  0  0  0  0  0
  -14.3953  -23.8361   33.4187 H   0  0  0  0  0  0  0  0  0  0  0  0
  -13.1679  -22.8325   33.8128 H   0  0  0  0  0  0  0  0  0  0  0  0
  -11.7491  -23.7634   34.9976 H   0  0  0  0  0  0  0  0  0  0  0  0
   -8.2870  -25.7759   32.7062 H   0  0  0  0  0  0  0  0  0  0  0  0
   -8.7170  -27.5216   30.9682 H   0  0  0  0  0  0  0  0  0  0  0  0
  -10.6982  -27.2478   29.5245 H   0  0  0  0  0  0  0  0  0  0  0  0
  -12.2177  -25.7760   30.2265 H   0  0  0  0  0  0  0  0  0  0  0  0
  -12.6169  -24.3210   30.9459 H   0  0  0  0  0  0  0  0  0  0  0  0
  -12.7627  -22.1393   28.8706 H   0  0  0  0  0  0  0  0  0  0  0  0
  -10.5453  -23.2656   28.0818 H   0  0  0  0  0  0  0  0  0  0  0  0
  -10.8930  -24.6773   28.9656 H   0  0  0  0  0  0  0  0  0  0  0  0
  -13.3005  -25.7820   27.8864 H   0  0  0  0  0  0  0  0  0  0  0  0
  -11.9515  -26.6705   27.1933 H   0  0  0  0  0  0  0  0  0  0  0  0
  -14.2701  -26.1453   25.7944 H   0  0  0  0  0  0  0  0  0  0  0  0
  -12.6815  -26.2007   24.9951 H   0  0  0  0  0  0  0  0  0  0  0  0
  -13.5581  -23.9235   24.4594 H   0  0  0  0  0  0  0  0  0  0  0  0
  -14.1264  -23.7791   26.0572 H   0  0  0  0  0  0  0  0  0  0  0  0
  -11.2224  -23.9664   25.2320 H   0  0  0  0  0  0  0  0  0  0  0  0
  -11.9224  -22.6915   26.2194 H   0  0  0  0  0  0  0  0  0  0  0  0
  -10.1796  -24.2009   30.8676 H   0  0  0  0  0  0  0  0  0  0  0  0
   -9.7335  -23.3969   33.1227 H   0  0  0  0  0  0  0  0  0  0  0  0
  -11.4265  -21.5492   33.8460 H   0  0  0  0  0  0  0  0  0  0  0  0
  -11.3333  -19.9003   32.4228 H   0  0  0  0  0  0  0  0  0  0  0  0
  -11.5871  -20.5866   29.7481 H   0  0  0  0  0  0  0  0  0  0  0  0
  1  2  2  0
  2  3  1  0
  3  4  1  0
  4  5  1  0
  5  6  2  0
  6  7  1  0
  7  8  2  0
  8  9  1  0
  9 10  2  0
 10 11  1  0
 11 12  2  0
  2 13  1  0
 13 14  1  0
 14 15  1  0
 15 16  1  0
 16 17  1  0
 17 18  1  0
 18 19  1  0
 19 20  1  0
 14 21  1  0
 21 22  2  0
 22 23  1  0
 23 24  2  0
 24 25  1  0
 25 26  2  0
 12  4  1  0
 20 16  1  0
 26 21  1  0
 12  7  1  0
  3 27  1  0
  3 28  1  0
  5 29  1  0
  8 30  1  0
  9 31  1  0
 10 32  1  0
 11 33  1  0
 13 34  1  0
 14 35  1  0
 15 36  1  0
 15 37  1  0
 17 38  1  0
 17 39  1  0
 18 40  1  0
 18 41  1  0
 19 42  1  0
 19 43  1  0
 20 44  1  0
 20 45  1  0
 22 46  1  0
 23 47  1  0
 24 48  1  0
 25 49  1  0
 26 50  1  0
M  END
>  <Energy>  (176) 
347.76375686415003

>  <compound_id>  (176) 
12760

>  <target_id>  (176) 
1

>  <reference_id>  (176) 
94

>  <inspiration_ids>  (176) 
[3, 94]

>  <energy_score>  (176) 
255.3678204534982

>  <distance_score>  (176) 
2.0926646505005744

>  <path>  (176) 
/opt/xchem-fragalysis-2/maxwin/BulkDock/SCRATCH/511014/C12760-P94/C12760-P94.minimised.mol

>  <scratch_subdir>  (176) 
/opt/xchem-fragalysis-2/maxwin/BulkDock/SCRATCH/511014/C12760-P94

>  <fragmenstein_runtime>  (176) 
10.085787534713745

>  <fragmenstein_outcome>  (176) 
too moved

>  <fragmenstein_mode>  (176) 
expansion

>  <fragmenstein_error>  (176) 


$$$$
C6666-P3
     RDKit          3D

 41 44  0  0  0  0  0  0  0  0999 V2000
   -9.3690  -22.2265   33.8301 O   0  0  0  0  0  0  0  0  0  0  0  0
   -9.8122  -22.8146   32.9172 C   0  0  0  0  0  0  0  0  0  0  0  0
   -9.6286  -24.3423   32.7934 C   0  0  0  0  0  0  0  0  0  0  0  0
  -10.3818  -24.9559   31.7263 N   0  0  0  0  0  0  0  0  0  0  0  0
   -9.9151  -24.7154   30.4882 C   0  0  0  0  0  0  0  0  0  0  0  0
  -10.7641  -25.0829   29.5767 N   0  0  0  0  0  0  0  0  0  0  0  0
  -11.7517  -25.7054   30.2095 C   0  0  0  0  0  0  0  0  0  0  0  0
  -12.8555  -26.3022   29.6211 C   0  0  0  0  0  0  0  0  0  0  0  0
  -13.7393  -26.9464   30.4576 C   0  0  0  0  0  0  0  0  0  0  0  0
  -13.4736  -27.0267   31.8199 C   0  0  0  0  0  0  0  0  0  0  0  0
  -12.3390  -26.4523   32.4018 C   0  0  0  0  0  0  0  0  0  0  0  0
  -11.5163  -25.7096   31.5777 C   0  0  0  0  0  0  0  0  0  0  0  0
  -10.5742  -22.2967   31.6506 N   0  0  0  0  0  0  0  0  0  0  0  0
  -10.8333  -21.0603   31.2480 C   0  0  0  0  0  0  0  0  0  0  0  0
  -10.7663  -19.9372   32.0577 C   0  0  0  0  0  0  0  0  0  0  0  0
  -10.9443  -18.8512   31.3236 N   0  0  0  0  0  0  0  0  0  0  0  0
  -11.3330  -19.3329   30.1361 N   0  0  0  0  0  0  0  0  0  0  0  0
  -11.1343  -20.6643   29.9622 C   0  0  0  0  0  0  0  0  0  0  0  0
  -11.0974  -21.2159   28.5703 C   0  0  0  0  0  0  0  0  0  0  0  0
  -11.4393  -22.6609   28.3775 C   0  0  0  0  0  0  0  0  0  0  0  0
  -11.8923  -22.7887   26.9413 C   0  0  0  0  0  0  0  0  0  0  0  0
  -12.6634  -21.5744   26.7513 N   0  0  0  0  0  0  0  0  0  0  0  0
  -11.9713  -20.5360   27.5195 C   0  0  0  0  0  0  0  0  0  0  0  0
   -8.5702  -24.5118   32.5685 H   0  0  0  0  0  0  0  0  0  0  0  0
   -9.8848  -24.8434   33.7041 H   0  0  0  0  0  0  0  0  0  0  0  0
   -8.9735  -24.1977   30.3369 H   0  0  0  0  0  0  0  0  0  0  0  0
  -13.0072  -26.2698   28.5482 H   0  0  0  0  0  0  0  0  0  0  0  0
  -14.6230  -27.4291   30.0467 H   0  0  0  0  0  0  0  0  0  0  0  0
  -14.1574  -27.5931   32.4525 H   0  0  0  0  0  0  0  0  0  0  0  0
  -12.1182  -26.6253   33.4444 H   0  0  0  0  0  0  0  0  0  0  0  0
  -10.8842  -23.0695   31.1098 H   0  0  0  0  0  0  0  0  0  0  0  0
  -10.5754  -19.8641   33.1186 H   0  0  0  0  0  0  0  0  0  0  0  0
  -11.6949  -18.6924   29.4399 H   0  0  0  0  0  0  0  0  0  0  0  0
  -10.0543  -21.0964   28.2534 H   0  0  0  0  0  0  0  0  0  0  0  0
  -10.5269  -23.2160   28.5024 H   0  0  0  0  0  0  0  0  0  0  0  0
  -12.2065  -23.0118   29.0682 H   0  0  0  0  0  0  0  0  0  0  0  0
  -12.4921  -23.6877   26.7752 H   0  0  0  0  0  0  0  0  0  0  0  0
  -11.0343  -22.8117   26.2591 H   0  0  0  0  0  0  0  0  0  0  0  0
  -12.7177  -21.3251   25.7655 H   0  0  0  0  0  0  0  0  0  0  0  0
  -11.3493  -19.9578   26.8497 H   0  0  0  0  0  0  0  0  0  0  0  0
  -12.6858  -19.8438   27.9405 H   0  0  0  0  0  0  0  0  0  0  0  0
  1  2  2  0
  2  3  1  0
  3  4  1  0
  4  5  1  0
  5  6  2  0
  6  7  1  0
  7  8  2  0
  8  9  1  0
  9 10  2  0
 10 11  1  0
 11 12  2  0
  2 13  1  0
 13 14  1  0
 14 15  1  0
 15 16  2  0
 16 17  1  0
 17 18  1  0
 18 19  1  0
 19 20  1  0
 20 21  1  0
 21 22  1  0
 22 23  1  0
 12  4  1  0
 18 14  2  0
 23 19  1  0
 12  7  1  0
  3 24  1  0
  3 25  1  0
  5 26  1  0
  8 27  1  0
  9 28  1  0
 10 29  1  0
 11 30  1  0
 13 31  1  0
 15 32  1  0
 17 33  1  0
 19 34  1  0
 20 35  1  0
 20 36  1  0
 21 37  1  0
 21 38  1  0
 22 39  1  0
 23 40  1  0
 23 41  1  0
M  END
>  <Energy>  (177) 
86.406379278794248

>  <compound_id>  (177) 
6666

>  <target_id>  (177) 
1

>  <reference_id>  (177) 
3

>  <inspiration_ids>  (177) 
[3, 94]

>  <energy_score>  (177) 
8.02720276155884

>  <distance_score>  (177) 
3.596046182348261

>  <path>  (177) 
/opt/xchem-fragalysis-2/maxwin/BulkDock/SCRATCH/511014/C6666-P3/C6666-P3.minimised.mol

>  <scratch_subdir>  (177) 
/opt/xchem-fragalysis-2/maxwin/BulkDock/SCRATCH/511014/C6666-P3

>  <fragmenstein_runtime>  (177) 
6.639416933059692

>  <fragmenstein_outcome>  (177) 
too moved

>  <fragmenstein_mode>  (177) 
expansion

>  <fragmenstein_error>  (177) 


$$$$
C6666-P94
     RDKit          3D

 41 44  0  0  0  0  0  0  0  0999 V2000
  -11.4188  -25.7647   29.7878 O   0  0  0  0  0  0  0  0  0  0  0  0
  -11.7046  -25.0218   30.6876 C   0  0  0  0  0  0  0  0  0  0  0  0
  -12.0069  -25.4906   32.1645 C   0  0  0  0  0  0  0  0  0  0  0  0
  -11.1115  -25.1263   33.2613 N   0  0  0  0  0  0  0  0  0  0  0  0
  -10.9426  -25.6326   34.4866 C   0  0  0  0  0  0  0  0  0  0  0  0
   -9.6707  -25.6809   34.8139 N   0  0  0  0  0  0  0  0  0  0  0  0
   -9.1156  -25.2614   33.6796 C   0  0  0  0  0  0  0  0  0  0  0  0
   -8.0564  -25.6696   32.9126 C   0  0  0  0  0  0  0  0  0  0  0  0
   -8.6181  -25.9157   31.6995 C   0  0  0  0  0  0  0  0  0  0  0  0
   -9.1851  -24.8591   31.1163 C   0  0  0  0  0  0  0  0  0  0  0  0
   -9.6093  -23.8532   31.9837 C   0  0  0  0  0  0  0  0  0  0  0  0
  -10.0009  -24.4079   33.0994 C   0  0  0  0  0  0  0  0  0  0  0  0
  -11.7560  -23.5967   30.7412 N   0  0  0  0  0  0  0  0  0  0  0  0
  -11.4094  -22.6523   29.8271 C   0  0  0  0  0  0  0  0  0  0  0  0
  -11.8157  -21.4319   30.2012 C   0  0  0  0  0  0  0  0  0  0  0  0
  -12.3275  -20.9504   29.0847 N   0  0  0  0  0  0  0  0  0  0  0  0
  -11.8638  -21.8548   28.1590 N   0  0  0  0  0  0  0  0  0  0  0  0
  -10.6770  -22.3050   28.6710 C   0  0  0  0  0  0  0  0  0  0  0  0
   -9.4200  -21.3697   28.0620 C   0  0  0  0  0  0  0  0  0  0  0  0
   -8.1926  -19.6143   28.5297 C   0  0  0  0  0  0  0  0  0  0  0  0
   -6.8709  -19.3548   30.2644 C   0  0  0  0  0  0  0  0  0  0  0  0
   -7.1260  -21.3651   31.0464 N   0  0  0  0  0  0  0  0  0  0  0  0
   -7.5779  -22.1500   28.8431 C   0  0  0  0  0  0  0  0  0  0  0  0
  -12.8303  -24.9252   32.5656 H   0  0  0  0  0  0  0  0  0  0  0  0
  -12.0463  -26.5779   32.1337 H   0  0  0  0  0  0  0  0  0  0  0  0
  -11.7155  -26.0238   35.0974 H   0  0  0  0  0  0  0  0  0  0  0  0
   -7.3109  -26.3179   33.3361 H   0  0  0  0  0  0  0  0  0  0  0  0
   -8.6741  -26.9139   31.2911 H   0  0  0  0  0  0  0  0  0  0  0  0
   -9.3137  -24.8638   30.0399 H   0  0  0  0  0  0  0  0  0  0  0  0
  -10.0808  -22.9105   31.7910 H   0  0  0  0  0  0  0  0  0  0  0  0
  -12.1219  -23.3130   31.6454 H   0  0  0  0  0  0  0  0  0  0  0  0
  -12.0436  -21.0911   31.1975 H   0  0  0  0  0  0  0  0  0  0  0  0
  -12.0934  -21.7382   27.1753 H   0  0  0  0  0  0  0  0  0  0  0  0
   -9.7540  -20.8270   27.2313 H   0  0  0  0  0  0  0  0  0  0  0  0
   -8.4779  -18.6144   28.1098 H   0  0  0  0  0  0  0  0  0  0  0  0
   -7.5011  -20.1806   27.7660 H   0  0  0  0  0  0  0  0  0  0  0  0
   -5.9845  -19.8886   30.9838 H   0  0  0  0  0  0  0  0  0  0  0  0
   -7.0165  -18.3623   30.8244 H   0  0  0  0  0  0  0  0  0  0  0  0
   -7.6947  -21.1426   31.9001 H   0  0  0  0  0  0  0  0  0  0  0  0
   -6.7712  -22.0432   28.0320 H   0  0  0  0  0  0  0  0  0  0  0  0
   -8.2714  -23.0602   28.5168 H   0  0  0  0  0  0  0  0  0  0  0  0
  1  2  2  0
  2  3  1  0
  3  4  1  0
  4  5  1  0
  5  6  2  0
  6  7  1  0
  7  8  2  0
  8  9  1  0
  9 10  2  0
 10 11  1  0
 11 12  2  0
  2 13  1  0
 13 14  1  0
 14 15  1  0
 15 16  2  0
 16 17  1  0
 17 18  1  0
 18 19  1  0
 19 20  1  0
 20 21  1  0
 21 22  1  0
 22 23  1  0
 12  4  1  0
 18 14  2  0
 23 19  1  0
 12  7  1  0
  3 24  1  0
  3 25  1  0
  5 26  1  0
  8 27  1  0
  9 28  1  0
 10 29  1  0
 11 30  1  0
 13 31  1  0
 15 32  1  0
 17 33  1  0
 19 34  1  0
 20 35  1  0
 20 36  1  0
 21 37  1  0
 21 38  1  0
 22 39  1  0
 23 40  1  0
 23 41  1  0
M  END
>  <Energy>  (178) 
1319.9109002928544

>  <compound_id>  (178) 
6666

>  <target_id>  (178) 
1

>  <reference_id>  (178) 
94

>  <inspiration_ids>  (178) 
[3, 94]

>  <energy_score>  (178) 
1261.3960858223872

>  <distance_score>  (178) 
3.3826364304500642

>  <path>  (178) 
/opt/xchem-fragalysis-2/maxwin/BulkDock/SCRATCH/511014/C6666-P94/C6666-P94.minimised.mol

>  <scratch_subdir>  (178) 
/opt/xchem-fragalysis-2/maxwin/BulkDock/SCRATCH/511014/C6666-P94

>  <fragmenstein_runtime>  (178) 
9.041855096817017

>  <fragmenstein_outcome>  (178) 
too moved

>  <fragmenstein_mode>  (178) 
expansion

>  <fragmenstein_error>  (178) 


$$$$
C12767-P3
     RDKit          3D

 50 52  0  0  0  0  0  0  0  0999 V2000
  -15.7564  -26.2954   31.8045 C   0  0  0  0  0  0  0  0  0  0  0  0
  -14.6464  -26.2375   30.7529 C   0  0  0  0  0  0  0  0  0  0  0  0
  -14.8628  -27.2248   29.5938 C   0  0  0  0  0  0  0  0  0  0  0  0
  -15.3803  -28.2877   29.7750 O   0  0  0  0  0  0  0  0  0  0  0  0
  -14.3193  -26.6374   28.4009 N   0  0  0  0  0  0  0  0  0  0  0  0
  -14.1421  -27.1757   27.0812 C   0  0  0  0  0  0  0  0  0  0  0  0
  -13.6670  -26.0827   26.1183 C   0  0  0  0  0  0  0  0  0  0  0  0
  -14.6826  -24.9380   25.9934 C   0  0  0  0  0  0  0  0  0  0  0  0
  -13.8455  -23.6760   25.9251 C   0  0  0  0  0  0  0  0  0  0  0  0
  -12.7408  -24.0106   26.8146 N   0  0  0  0  0  0  0  0  0  0  0  0
  -11.6413  -23.0351   26.7931 C   0  0  0  0  0  0  0  0  0  0  0  0
  -12.0341  -21.8861   27.7185 C   0  0  0  0  0  0  0  0  0  0  0  0
  -10.9244  -20.9903   28.2294 C   0  0  0  0  0  0  0  0  0  0  0  0
  -11.1572  -20.6937   29.6027 O   0  0  0  0  0  0  0  0  0  0  0  0
  -12.3546  -25.3973   26.5380 C   0  0  0  0  0  0  0  0  0  0  0  0
  -13.3107  -26.4251   31.3119 N   0  0  0  0  0  0  0  0  0  0  0  0
  -13.0050  -27.2431   32.3646 C   0  0  0  0  0  0  0  0  0  0  0  0
  -11.8714  -26.8944   32.9220 N   0  0  0  0  0  0  0  0  0  0  0  0
  -11.3746  -25.8862   32.1349 C   0  0  0  0  0  0  0  0  0  0  0  0
  -10.2292  -25.0725   32.3183 C   0  0  0  0  0  0  0  0  0  0  0  0
   -9.9002  -24.1031   31.3839 C   0  0  0  0  0  0  0  0  0  0  0  0
  -10.7089  -23.9463   30.2770 C   0  0  0  0  0  0  0  0  0  0  0  0
  -11.8539  -24.7248   30.0666 C   0  0  0  0  0  0  0  0  0  0  0  0
  -12.1921  -25.6684   31.0368 C   0  0  0  0  0  0  0  0  0  0  0  0
  -15.8595  -27.2941   32.2420 H   0  0  0  0  0  0  0  0  0  0  0  0
  -16.7212  -26.0450   31.3496 H   0  0  0  0  0  0  0  0  0  0  0  0
  -15.5691  -25.5852   32.6171 H   0  0  0  0  0  0  0  0  0  0  0  0
  -14.6801  -25.2124   30.3618 H   0  0  0  0  0  0  0  0  0  0  0  0
  -13.8866  -25.7559   28.6352 H   0  0  0  0  0  0  0  0  0  0  0  0
  -13.4093  -27.9845   27.1526 H   0  0  0  0  0  0  0  0  0  0  0  0
  -15.0928  -27.6128   26.7593 H   0  0  0  0  0  0  0  0  0  0  0  0
  -13.5302  -26.5463   25.1379 H   0  0  0  0  0  0  0  0  0  0  0  0
  -15.3194  -25.0754   25.1186 H   0  0  0  0  0  0  0  0  0  0  0  0
  -15.3513  -24.8848   26.8610 H   0  0  0  0  0  0  0  0  0  0  0  0
  -13.5177  -23.4781   24.9007 H   0  0  0  0  0  0  0  0  0  0  0  0
  -14.4174  -22.8117   26.2748 H   0  0  0  0  0  0  0  0  0  0  0  0
  -10.7439  -23.5053   27.1891 H   0  0  0  0  0  0  0  0  0  0  0  0
  -11.4071  -22.6846   25.7819 H   0  0  0  0  0  0  0  0  0  0  0  0
  -12.4810  -22.3453   28.5931 H   0  0  0  0  0  0  0  0  0  0  0  0
  -12.8007  -21.2684   27.2387 H   0  0  0  0  0  0  0  0  0  0  0  0
  -10.8898  -20.0537   27.6750 H   0  0  0  0  0  0  0  0  0  0  0  0
   -9.9528  -21.4799   28.1685 H   0  0  0  0  0  0  0  0  0  0  0  0
  -11.7557  -19.9229   29.6621 H   0  0  0  0  0  0  0  0  0  0  0  0
  -11.9036  -25.8672   27.4173 H   0  0  0  0  0  0  0  0  0  0  0  0
  -11.6036  -25.4791   25.7512 H   0  0  0  0  0  0  0  0  0  0  0  0
  -13.6629  -28.0263   32.7203 H   0  0  0  0  0  0  0  0  0  0  0  0
   -9.6033  -25.2073   33.1946 H   0  0  0  0  0  0  0  0  0  0  0  0
   -9.0208  -23.4825   31.5351 H   0  0  0  0  0  0  0  0  0  0  0  0
  -10.4419  -23.1716   29.5735 H   0  0  0  0  0  0  0  0  0  0  0  0
  -12.4976  -24.4981   29.2353 H   0  0  0  0  0  0  0  0  0  0  0  0
  1  2  1  0
  2  3  1  0
  3  4  2  0
  3  5  1  0
  5  6  1  0
  6  7  1  0
  7  8  1  0
  8  9  1  0
  9 10  1  0
 10 11  1  0
 11 12  1  0
 12 13  1  0
 13 14  1  0
 10 15  1  0
  2 16  1  0
 16 17  1  0
 17 18  2  0
 18 19  1  0
 19 20  2  0
 20 21  1  0
 21 22  2  0
 22 23  1  0
 23 24  2  0
 15  7  1  0
 24 16  1  0
 24 19  1  0
  1 25  1  0
  1 26  1  0
  1 27  1  0
  2 28  1  0
  5 29  1  0
  6 30  1  0
  6 31  1  0
  7 32  1  0
  8 33  1  0
  8 34  1  0
  9 35  1  0
  9 36  1  0
 11 37  1  0
 11 38  1  0
 12 39  1  0
 12 40  1  0
 13 41  1  0
 13 42  1  0
 14 43  1  0
 15 44  1  0
 15 45  1  0
 17 46  1  0
 20 47  1  0
 21 48  1  0
 22 49  1  0
 23 50  1  0
M  END
>  <Energy>  (179) 
44.04266559638257

>  <compound_id>  (179) 
12767

>  <target_id>  (179) 
1

>  <reference_id>  (179) 
3

>  <inspiration_ids>  (179) 
[3, 94]

>  <energy_score>  (179) 
-11.259035379229843

>  <distance_score>  (179) 
3.298712666096572

>  <path>  (179) 
/opt/xchem-fragalysis-2/maxwin/BulkDock/SCRATCH/511014/C12767-P3/C12767-P3.minimised.mol

>  <scratch_subdir>  (179) 
/opt/xchem-fragalysis-2/maxwin/BulkDock/SCRATCH/511014/C12767-P3

>  <fragmenstein_runtime>  (179) 
15.659997463226318

>  <fragmenstein_outcome>  (179) 
too moved

>  <fragmenstein_mode>  (179) 
expansion

>  <fragmenstein_error>  (179) 


$$$$
C12767-P94
     RDKit          3D

 50 52  0  0  0  0  0  0  0  0999 V2000
  -16.2001  -22.7171   34.7598 C   0  0  0  0  0  0  0  0  0  0  0  0
  -16.5609  -21.3566   34.1820 C   0  0  0  0  0  0  0  0  0  0  0  0
  -16.3200  -21.1437   32.6917 C   0  0  0  0  0  0  0  0  0  0  0  0
  -17.0988  -20.4425   32.1084 O   0  0  0  0  0  0  0  0  0  0  0  0
  -15.1124  -21.7656   32.2494 N   0  0  0  0  0  0  0  0  0  0  0  0
  -14.5196  -21.8227   30.9785 C   0  0  0  0  0  0  0  0  0  0  0  0
  -13.0706  -22.3871   30.6263 C   0  0  0  0  0  0  0  0  0  0  0  0
  -11.8528  -21.5664   30.2664 C   0  0  0  0  0  0  0  0  0  0  0  0
  -11.1377  -21.5391   31.5943 C   0  0  0  0  0  0  0  0  0  0  0  0
  -11.1008  -22.9704   31.7289 N   0  0  0  0  0  0  0  0  0  0  0  0
  -10.4944  -23.6373   32.8369 C   0  0  0  0  0  0  0  0  0  0  0  0
  -10.4700  -25.1453   32.6406 C   0  0  0  0  0  0  0  0  0  0  0  0
   -9.8478  -25.5512   31.3187 C   0  0  0  0  0  0  0  0  0  0  0  0
  -10.0468  -26.9400   31.1196 O   0  0  0  0  0  0  0  0  0  0  0  0
  -12.4759  -23.3760   31.6051 C   0  0  0  0  0  0  0  0  0  0  0  0
  -15.9873  -20.2159   34.8720 N   0  0  0  0  0  0  0  0  0  0  0  0
  -16.7375  -19.3110   35.5679 C   0  0  0  0  0  0  0  0  0  0  0  0
  -16.0214  -18.2908   35.9691 N   0  0  0  0  0  0  0  0  0  0  0  0
  -14.7553  -18.5369   35.5217 C   0  0  0  0  0  0  0  0  0  0  0  0
  -13.5986  -17.7711   35.7019 C   0  0  0  0  0  0  0  0  0  0  0  0
  -12.3911  -18.2477   35.2060 C   0  0  0  0  0  0  0  0  0  0  0  0
  -12.3409  -19.4676   34.5520 C   0  0  0  0  0  0  0  0  0  0  0  0
  -13.4800  -20.2450   34.3558 C   0  0  0  0  0  0  0  0  0  0  0  0
  -14.6942  -19.7412   34.8270 C   0  0  0  0  0  0  0  0  0  0  0  0
  -16.6101  -23.5225   34.1411 H   0  0  0  0  0  0  0  0  0  0  0  0
  -16.6212  -22.8204   35.7656 H   0  0  0  0  0  0  0  0  0  0  0  0
  -15.1223  -22.8745   34.8387 H   0  0  0  0  0  0  0  0  0  0  0  0
  -17.6520  -21.2767   34.3025 H   0  0  0  0  0  0  0  0  0  0  0  0
  -14.7570  -22.3545   32.9869 H   0  0  0  0  0  0  0  0  0  0  0  0
  -15.2913  -22.3716   30.4276 H   0  0  0  0  0  0  0  0  0  0  0  0
  -14.7886  -20.8538   30.5921 H   0  0  0  0  0  0  0  0  0  0  0  0
  -13.1612  -22.8992   29.6823 H   0  0  0  0  0  0  0  0  0  0  0  0
  -11.2380  -22.1197   29.5342 H   0  0  0  0  0  0  0  0  0  0  0  0
  -12.0802  -20.6909   29.6897 H   0  0  0  0  0  0  0  0  0  0  0  0
  -10.1704  -21.0730   31.5660 H   0  0  0  0  0  0  0  0  0  0  0  0
  -11.7176  -21.0638   32.3795 H   0  0  0  0  0  0  0  0  0  0  0  0
   -9.4586  -23.3255   32.9581 H   0  0  0  0  0  0  0  0  0  0  0  0
  -11.0658  -23.4166   33.7419 H   0  0  0  0  0  0  0  0  0  0  0  0
  -11.4760  -25.5666   32.7129 H   0  0  0  0  0  0  0  0  0  0  0  0
   -9.9186  -25.5962   33.4719 H   0  0  0  0  0  0  0  0  0  0  0  0
   -8.7781  -25.3406   31.3247 H   0  0  0  0  0  0  0  0  0  0  0  0
  -10.2927  -25.0476   30.4579 H   0  0  0  0  0  0  0  0  0  0  0  0
   -9.5246  -27.3894   31.8223 H   0  0  0  0  0  0  0  0  0  0  0  0
  -12.4418  -24.3672   31.1586 H   0  0  0  0  0  0  0  0  0  0  0  0
  -12.9733  -23.3734   32.5802 H   0  0  0  0  0  0  0  0  0  0  0  0
  -17.8008  -19.4294   35.7370 H   0  0  0  0  0  0  0  0  0  0  0  0
  -13.6506  -16.8235   36.2272 H   0  0  0  0  0  0  0  0  0  0  0  0
  -11.4880  -17.6522   35.3170 H   0  0  0  0  0  0  0  0  0  0  0  0
  -11.3940  -19.8019   34.1504 H   0  0  0  0  0  0  0  0  0  0  0  0
  -13.3731  -21.2198   33.9063 H   0  0  0  0  0  0  0  0  0  0  0  0
  1  2  1  0
  2  3  1  0
  3  4  2  0
  3  5  1  0
  5  6  1  0
  6  7  1  0
  7  8  1  0
  8  9  1  0
  9 10  1  0
 10 11  1  0
 11 12  1  0
 12 13  1  0
 13 14  1  0
 10 15  1  0
  2 16  1  0
 16 17  1  0
 17 18  2  0
 18 19  1  0
 19 20  2  0
 20 21  1  0
 21 22  2  0
 22 23  1  0
 23 24  2  0
 15  7  1  0
 24 16  1  0
 24 19  1  0
  1 25  1  0
  1 26  1  0
  1 27  1  0
  2 28  1  0
  5 29  1  0
  6 30  1  0
  6 31  1  0
  7 32  1  0
  8 33  1  0
  8 34  1  0
  9 35  1  0
  9 36  1  0
 11 37  1  0
 11 38  1  0
 12 39  1  0
 12 40  1  0
 13 41  1  0
 13 42  1  0
 14 43  1  0
 15 44  1  0
 15 45  1  0
 17 46  1  0
 20 47  1  0
 21 48  1  0
 22 49  1  0
 23 50  1  0
M  END
>  <Energy>  (180) 
78.388388754389638

>  <compound_id>  (180) 
12767

>  <target_id>  (180) 
1

>  <reference_id>  (180) 
94

>  <inspiration_ids>  (180) 
[3, 94]

>  <energy_score>  (180) 
23.0866877787783

>  <distance_score>  (180) 
5.960310308390774

>  <path>  (180) 
/opt/xchem-fragalysis-2/maxwin/BulkDock/SCRATCH/511014/C12767-P94/C12767-P94.minimised.mol

>  <scratch_subdir>  (180) 
/opt/xchem-fragalysis-2/maxwin/BulkDock/SCRATCH/511014/C12767-P94

>  <fragmenstein_runtime>  (180) 
13.350841999053955

>  <fragmenstein_outcome>  (180) 
too moved

>  <fragmenstein_mode>  (180) 
expansion

>  <fragmenstein_error>  (180) 


$$$$
C12768-P3
     RDKit          3D

 50 52  0  0  0  0  0  0  0  0999 V2000
  -10.6827  -20.2935   28.2273 O   0  0  0  0  0  0  0  0  0  0  0  0
  -11.4262  -21.1738   28.5300 C   0  0  0  0  0  0  0  0  0  0  0  0
  -11.5617  -21.6646   29.9606 C   0  0  0  0  0  0  0  0  0  0  0  0
  -10.5462  -21.4631   31.0306 C   0  0  0  0  0  0  0  0  0  0  0  0
  -10.6354  -22.4610   32.1505 N   0  0  0  0  0  0  0  0  0  0  0  0
   -9.4599  -22.4467   32.9095 C   0  0  0  0  0  0  0  0  0  0  0  0
   -8.5939  -23.1872   32.2507 N   0  0  0  0  0  0  0  0  0  0  0  0
   -9.4115  -23.9749   31.5096 C   0  0  0  0  0  0  0  0  0  0  0  0
   -9.3329  -24.7403   30.4195 C   0  0  0  0  0  0  0  0  0  0  0  0
  -10.4639  -25.4809   29.8484 C   0  0  0  0  0  0  0  0  0  0  0  0
  -11.6071  -25.7072   30.4775 C   0  0  0  0  0  0  0  0  0  0  0  0
  -11.6771  -24.9196   31.5438 C   0  0  0  0  0  0  0  0  0  0  0  0
  -10.7196  -23.8318   31.7910 C   0  0  0  0  0  0  0  0  0  0  0  0
  -12.4060  -21.9018   27.7403 N   0  0  0  0  0  0  0  0  0  0  0  0
  -12.8452  -21.7213   26.3855 C   0  0  0  0  0  0  0  0  0  0  0  0
  -14.1281  -22.5445   26.0418 C   0  0  0  0  0  0  0  0  0  0  0  0
  -15.0247  -23.1751   27.1145 C   0  0  0  0  0  0  0  0  0  0  0  0
  -15.7788  -24.2530   26.3846 C   0  0  0  0  0  0  0  0  0  0  0  0
  -14.7823  -24.8153   25.4947 N   0  0  0  0  0  0  0  0  0  0  0  0
  -14.3194  -26.1273   25.9494 C   0  0  0  0  0  0  0  0  0  0  0  0
  -13.4466  -26.2675   27.2024 C   0  0  0  0  0  0  0  0  0  0  0  0
  -11.9964  -25.9021   26.9559 C   0  0  0  0  0  0  0  0  0  0  0  0
  -11.7376  -24.6276   27.5217 O   0  0  0  0  0  0  0  0  0  0  0  0
  -13.7554  -23.7902   25.2756 C   0  0  0  0  0  0  0  0  0  0  0  0
  -11.8367  -22.7142   29.9004 H   0  0  0  0  0  0  0  0  0  0  0  0
  -12.3648  -21.0540   30.3518 H   0  0  0  0  0  0  0  0  0  0  0  0
  -10.6018  -20.4728   31.4963 H   0  0  0  0  0  0  0  0  0  0  0  0
   -9.5712  -21.6283   30.5758 H   0  0  0  0  0  0  0  0  0  0  0  0
   -9.2734  -21.7394   33.7039 H   0  0  0  0  0  0  0  0  0  0  0  0
   -8.3397  -24.7562   30.0386 H   0  0  0  0  0  0  0  0  0  0  0  0
  -10.3860  -26.0521   28.9378 H   0  0  0  0  0  0  0  0  0  0  0  0
  -12.3574  -26.4179   30.1718 H   0  0  0  0  0  0  0  0  0  0  0  0
  -12.5630  -25.1739   32.1191 H   0  0  0  0  0  0  0  0  0  0  0  0
  -12.8009  -22.6416   28.3026 H   0  0  0  0  0  0  0  0  0  0  0  0
  -12.0097  -21.9561   25.7173 H   0  0  0  0  0  0  0  0  0  0  0  0
  -13.0405  -20.6545   26.2611 H   0  0  0  0  0  0  0  0  0  0  0  0
  -14.7519  -21.9279   25.3786 H   0  0  0  0  0  0  0  0  0  0  0  0
  -14.4494  -23.6369   27.9187 H   0  0  0  0  0  0  0  0  0  0  0  0
  -15.7789  -22.5296   27.5503 H   0  0  0  0  0  0  0  0  0  0  0  0
  -16.5846  -23.8110   25.7858 H   0  0  0  0  0  0  0  0  0  0  0  0
  -16.2455  -24.9689   27.0705 H   0  0  0  0  0  0  0  0  0  0  0  0
  -13.8150  -26.6195   25.1180 H   0  0  0  0  0  0  0  0  0  0  0  0
  -15.2105  -26.7527   26.1030 H   0  0  0  0  0  0  0  0  0  0  0  0
  -13.4742  -27.3313   27.4743 H   0  0  0  0  0  0  0  0  0  0  0  0
  -13.8741  -25.7296   28.0531 H   0  0  0  0  0  0  0  0  0  0  0  0
  -11.7295  -25.9057   25.8961 H   0  0  0  0  0  0  0  0  0  0  0  0
  -11.3567  -26.6564   27.4133 H   0  0  0  0  0  0  0  0  0  0  0  0
  -10.9427  -24.2570   27.0927 H   0  0  0  0  0  0  0  0  0  0  0  0
  -12.7811  -24.1051   25.6032 H   0  0  0  0  0  0  0  0  0  0  0  0
  -13.6660  -23.5210   24.2249 H   0  0  0  0  0  0  0  0  0  0  0  0
  1  2  2  0
  2  3  1  0
  3  4  1  0
  4  5  1  0
  5  6  1  0
  6  7  2  0
  7  8  1  0
  8  9  2  0
  9 10  1  0
 10 11  2  0
 11 12  1  0
 12 13  2  0
  2 14  1  0
 14 15  1  0
 15 16  1  0
 16 17  1  0
 17 18  1  0
 18 19  1  0
 19 20  1  0
 20 21  1  0
 21 22  1  0
 22 23  1  0
 19 24  1  0
 13  5  1  0
 24 16  1  0
 13  8  1  0
  3 25  1  0
  3 26  1  0
  4 27  1  0
  4 28  1  0
  6 29  1  0
  9 30  1  0
 10 31  1  0
 11 32  1  0
 12 33  1  0
 14 34  1  0
 15 35  1  0
 15 36  1  0
 16 37  1  0
 17 38  1  0
 17 39  1  0
 18 40  1  0
 18 41  1  0
 20 42  1  0
 20 43  1  0
 21 44  1  0
 21 45  1  0
 22 46  1  0
 22 47  1  0
 23 48  1  0
 24 49  1  0
 24 50  1  0
M  END
>  <Energy>  (181) 
135.10391188309652

>  <compound_id>  (181) 
12768

>  <target_id>  (181) 
1

>  <reference_id>  (181) 
3

>  <inspiration_ids>  (181) 
[3, 94]

>  <energy_score>  (181) 
113.12186402816918

>  <distance_score>  (181) 
3.9653404415474434

>  <path>  (181) 
/opt/xchem-fragalysis-2/maxwin/BulkDock/SCRATCH/511014/C12768-P3/C12768-P3.minimised.mol

>  <scratch_subdir>  (181) 
/opt/xchem-fragalysis-2/maxwin/BulkDock/SCRATCH/511014/C12768-P3

>  <fragmenstein_runtime>  (181) 
9.406377077102661

>  <fragmenstein_outcome>  (181) 
too moved

>  <fragmenstein_mode>  (181) 
expansion

>  <fragmenstein_error>  (181) 


$$$$
C12768-P94
     RDKit          3D

 50 52  0  0  0  0  0  0  0  0999 V2000
  -13.5699  -21.6730   31.4355 O   0  0  0  0  0  0  0  0  0  0  0  0
  -13.1599  -22.7481   31.7546 C   0  0  0  0  0  0  0  0  0  0  0  0
  -13.2143  -23.0846   33.2258 C   0  0  0  0  0  0  0  0  0  0  0  0
  -11.8758  -23.5239   33.6988 C   0  0  0  0  0  0  0  0  0  0  0  0
  -11.5364  -24.9502   33.6499 N   0  0  0  0  0  0  0  0  0  0  0  0
  -10.5606  -25.2673   34.5458 C   0  0  0  0  0  0  0  0  0  0  0  0
   -9.3755  -25.2549   33.9796 N   0  0  0  0  0  0  0  0  0  0  0  0
   -9.6912  -25.3731   32.6770 C   0  0  0  0  0  0  0  0  0  0  0  0
   -8.9486  -25.4810   31.5386 C   0  0  0  0  0  0  0  0  0  0  0  0
   -9.5565  -26.0476   30.4272 C   0  0  0  0  0  0  0  0  0  0  0  0
  -10.6916  -26.7881   30.6082 C   0  0  0  0  0  0  0  0  0  0  0  0
  -11.4393  -26.6364   31.7351 C   0  0  0  0  0  0  0  0  0  0  0  0
  -11.0288  -25.6416   32.5870 C   0  0  0  0  0  0  0  0  0  0  0  0
  -12.5276  -23.7988   30.9620 N   0  0  0  0  0  0  0  0  0  0  0  0
  -12.2943  -23.8985   29.5625 C   0  0  0  0  0  0  0  0  0  0  0  0
  -12.4967  -25.0213   28.4498 C   0  0  0  0  0  0  0  0  0  0  0  0
  -12.1286  -26.2903   27.6694 C   0  0  0  0  0  0  0  0  0  0  0  0
  -10.8548  -25.8677   26.9120 C   0  0  0  0  0  0  0  0  0  0  0  0
  -10.9152  -24.3867   26.8314 N   0  0  0  0  0  0  0  0  0  0  0  0
  -10.1259  -23.6554   27.8630 C   0  0  0  0  0  0  0  0  0  0  0  0
  -10.6674  -22.1954   28.2453 C   0  0  0  0  0  0  0  0  0  0  0  0
  -11.1427  -21.4899   29.5620 C   0  0  0  0  0  0  0  0  0  0  0  0
  -10.7403  -21.7960   30.8789 O   0  0  0  0  0  0  0  0  0  0  0  0
  -12.3142  -24.1881   27.1301 C   0  0  0  0  0  0  0  0  0  0  0  0
  -13.4531  -22.1385   33.7330 H   0  0  0  0  0  0  0  0  0  0  0  0
  -14.0156  -23.7564   33.5052 H   0  0  0  0  0  0  0  0  0  0  0  0
  -11.8272  -23.2299   34.7463 H   0  0  0  0  0  0  0  0  0  0  0  0
  -11.0763  -22.9858   33.1818 H   0  0  0  0  0  0  0  0  0  0  0  0
  -10.7463  -25.0387   35.5617 H   0  0  0  0  0  0  0  0  0  0  0  0
   -7.9038  -25.3070   31.6418 H   0  0  0  0  0  0  0  0  0  0  0  0
   -9.0836  -26.0996   29.4566 H   0  0  0  0  0  0  0  0  0  0  0  0
  -11.0415  -27.4487   29.8438 H   0  0  0  0  0  0  0  0  0  0  0  0
  -12.3153  -27.2168   31.8747 H   0  0  0  0  0  0  0  0  0  0  0  0
  -12.3877  -24.5970   31.5336 H   0  0  0  0  0  0  0  0  0  0  0  0
  -12.7375  -22.9882   29.1984 H   0  0  0  0  0  0  0  0  0  0  0  0
  -11.2398  -23.8138   29.6913 H   0  0  0  0  0  0  0  0  0  0  0  0
  -11.6520  -25.4106   29.0113 H   0  0  0  0  0  0  0  0  0  0  0  0
  -12.0333  -27.2189   28.2310 H   0  0  0  0  0  0  0  0  0  0  0  0
  -12.9424  -26.5238   26.9672 H   0  0  0  0  0  0  0  0  0  0  0  0
  -10.8820  -26.3073   25.9089 H   0  0  0  0  0  0  0  0  0  0  0  0
   -9.9537  -26.2139   27.4190 H   0  0  0  0  0  0  0  0  0  0  0  0
   -9.1318  -23.5570   27.4509 H   0  0  0  0  0  0  0  0  0  0  0  0
   -9.8657  -24.2763   28.7085 H   0  0  0  0  0  0  0  0  0  0  0  0
  -11.3202  -21.8417   27.4453 H   0  0  0  0  0  0  0  0  0  0  0  0
   -9.8217  -21.5878   28.0728 H   0  0  0  0  0  0  0  0  0  0  0  0
  -12.1976  -21.2289   29.5111 H   0  0  0  0  0  0  0  0  0  0  0  0
  -10.6684  -20.5486   29.5173 H   0  0  0  0  0  0  0  0  0  0  0  0
  -11.0258  -22.6944   31.0983 H   0  0  0  0  0  0  0  0  0  0  0  0
  -12.9453  -24.5552   26.3029 H   0  0  0  0  0  0  0  0  0  0  0  0
  -12.6121  -23.1516   27.1776 H   0  0  0  0  0  0  0  0  0  0  0  0
  1  2  2  0
  2  3  1  0
  3  4  1  0
  4  5  1  0
  5  6  1  0
  6  7  2  0
  7  8  1  0
  8  9  2  0
  9 10  1  0
 10 11  2  0
 11 12  1  0
 12 13  2  0
  2 14  1  0
 14 15  1  0
 15 16  1  0
 16 17  1  0
 17 18  1  0
 18 19  1  0
 19 20  1  0
 20 21  1  0
 21 22  1  0
 22 23  1  0
 19 24  1  0
 13  5  1  0
 24 16  1  0
 13  8  1  0
  3 25  1  0
  3 26  1  0
  4 27  1  0
  4 28  1  0
  6 29  1  0
  9 30  1  0
 10 31  1  0
 11 32  1  0
 12 33  1  0
 14 34  1  0
 15 35  1  0
 15 36  1  0
 16 37  1  0
 17 38  1  0
 17 39  1  0
 18 40  1  0
 18 41  1  0
 20 42  1  0
 20 43  1  0
 21 44  1  0
 21 45  1  0
 22 46  1  0
 22 47  1  0
 23 48  1  0
 24 49  1  0
 24 50  1  0
M  END
>  <Energy>  (182) 
291.80213254832165

>  <compound_id>  (182) 
12768

>  <target_id>  (182) 
1

>  <reference_id>  (182) 
94

>  <inspiration_ids>  (182) 
[3, 94]

>  <energy_score>  (182) 
269.8200846933991

>  <distance_score>  (182) 
2.4848572241154394

>  <path>  (182) 
/opt/xchem-fragalysis-2/maxwin/BulkDock/SCRATCH/511014/C12768-P94/C12768-P94.minimised.mol

>  <scratch_subdir>  (182) 
/opt/xchem-fragalysis-2/maxwin/BulkDock/SCRATCH/511014/C12768-P94

>  <fragmenstein_runtime>  (182) 
13.640074491500854

>  <fragmenstein_outcome>  (182) 
too moved

>  <fragmenstein_mode>  (182) 
expansion

>  <fragmenstein_error>  (182) 


$$$$
C12769-P3
     RDKit          3D

 53 55  0  0  0  0  0  0  0  0999 V2000
  -11.4153  -20.7830   28.0822 C   0  0  0  0  0  0  0  0  0  0  0  0
  -11.1913  -21.9972   27.2004 C   0  0  0  0  0  0  0  0  0  0  0  0
  -11.0778  -23.2549   27.9733 C   0  0  0  0  0  0  0  0  0  0  0  0
  -12.1783  -22.1476   26.0479 C   0  0  0  0  0  0  0  0  0  0  0  0
  -13.4913  -22.6301   26.4701 N   0  0  0  0  0  0  0  0  0  0  0  0
  -14.4527  -22.3182   25.4212 C   0  0  0  0  0  0  0  0  0  0  0  0
  -15.6711  -23.0518   25.9331 C   0  0  0  0  0  0  0  0  0  0  0  0
  -15.1249  -24.3400   26.5726 C   0  0  0  0  0  0  0  0  0  0  0  0
  -15.8172  -24.5659   27.9423 C   0  0  0  0  0  0  0  0  0  0  0  0
  -15.6691  -25.8822   28.5968 N   0  0  0  0  0  0  0  0  0  0  0  0
  -16.7814  -26.1010   29.5329 C   0  0  0  0  0  0  0  0  0  0  0  0
  -14.3794  -26.1631   29.2652 C   0  0  0  0  0  0  0  0  0  0  0  0
  -13.8426  -25.1513   30.2404 C   0  0  0  0  0  0  0  0  0  0  0  0
  -12.6024  -25.5481   30.8788 N   0  0  0  0  0  0  0  0  0  0  0  0
  -12.5549  -26.5672   31.7917 C   0  0  0  0  0  0  0  0  0  0  0  0
  -11.4969  -26.4796   32.5481 N   0  0  0  0  0  0  0  0  0  0  0  0
  -10.7963  -25.4009   32.0626 C   0  0  0  0  0  0  0  0  0  0  0  0
   -9.6168  -24.8239   32.5376 C   0  0  0  0  0  0  0  0  0  0  0  0
   -9.1013  -23.6484   32.0159 C   0  0  0  0  0  0  0  0  0  0  0  0
   -9.8733  -22.9300   31.1498 C   0  0  0  0  0  0  0  0  0  0  0  0
  -11.0845  -23.4549   30.7267 C   0  0  0  0  0  0  0  0  0  0  0  0
  -11.4765  -24.7639   31.0516 C   0  0  0  0  0  0  0  0  0  0  0  0
  -13.6221  -24.0952   26.5883 C   0  0  0  0  0  0  0  0  0  0  0  0
  -11.7675  -19.9302   27.5025 H   0  0  0  0  0  0  0  0  0  0  0  0
  -10.4830  -20.4931   28.5761 H   0  0  0  0  0  0  0  0  0  0  0  0
  -12.1331  -20.9821   28.8708 H   0  0  0  0  0  0  0  0  0  0  0  0
  -10.2144  -21.9187   26.7491 H   0  0  0  0  0  0  0  0  0  0  0  0
  -10.9174  -24.1097   27.3101 H   0  0  0  0  0  0  0  0  0  0  0  0
  -10.2298  -23.1408   28.6277 H   0  0  0  0  0  0  0  0  0  0  0  0
  -11.9922  -23.4521   28.5104 H   0  0  0  0  0  0  0  0  0  0  0  0
  -12.2775  -21.1614   25.5731 H   0  0  0  0  0  0  0  0  0  0  0  0
  -11.7492  -22.7997   25.2780 H   0  0  0  0  0  0  0  0  0  0  0  0
  -14.6411  -21.2543   25.2910 H   0  0  0  0  0  0  0  0  0  0  0  0
  -14.1285  -22.7141   24.4531 H   0  0  0  0  0  0  0  0  0  0  0  0
  -16.2105  -22.4554   26.6750 H   0  0  0  0  0  0  0  0  0  0  0  0
  -16.4062  -23.2612   25.1547 H   0  0  0  0  0  0  0  0  0  0  0  0
  -15.3507  -25.1921   25.9185 H   0  0  0  0  0  0  0  0  0  0  0  0
  -16.8895  -24.4390   27.7322 H   0  0  0  0  0  0  0  0  0  0  0  0
  -15.5728  -23.7619   28.6397 H   0  0  0  0  0  0  0  0  0  0  0  0
  -16.7189  -27.0946   29.9907 H   0  0  0  0  0  0  0  0  0  0  0  0
  -17.7414  -26.0705   29.0050 H   0  0  0  0  0  0  0  0  0  0  0  0
  -16.8041  -25.3510   30.3309 H   0  0  0  0  0  0  0  0  0  0  0  0
  -14.4582  -27.1459   29.7497 H   0  0  0  0  0  0  0  0  0  0  0  0
  -13.6325  -26.3401   28.4815 H   0  0  0  0  0  0  0  0  0  0  0  0
  -13.6563  -24.2349   29.6880 H   0  0  0  0  0  0  0  0  0  0  0  0
  -14.5845  -24.9920   31.0305 H   0  0  0  0  0  0  0  0  0  0  0  0
  -13.3388  -27.3068   31.8968 H   0  0  0  0  0  0  0  0  0  0  0  0
   -9.1215  -25.3402   33.3401 H   0  0  0  0  0  0  0  0  0  0  0  0
   -8.1643  -23.2562   32.4003 H   0  0  0  0  0  0  0  0  0  0  0  0
   -9.5773  -21.9313   30.8577 H   0  0  0  0  0  0  0  0  0  0  0  0
  -11.7309  -22.7614   30.2153 H   0  0  0  0  0  0  0  0  0  0  0  0
  -13.1744  -24.6045   25.7296 H   0  0  0  0  0  0  0  0  0  0  0  0
  -13.1784  -24.5267   27.4735 H   0  0  0  0  0  0  0  0  0  0  0  0
  1  2  1  0
  2  3  1  0
  2  4  1  0
  4  5  1  0
  5  6  1  0
  6  7  1  0
  7  8  1  0
  8  9  1  0
  9 10  1  0
 10 11  1  0
 10 12  1  0
 12 13  1  0
 13 14  1  0
 14 15  1  0
 15 16  2  0
 16 17  1  0
 17 18  2  0
 18 19  1  0
 19 20  2  0
 20 21  1  0
 21 22  2  0
  8 23  1  0
 23  5  1  0
 22 14  1  0
 22 17  1  0
  1 24  1  0
  1 25  1  0
  1 26  1  0
  2 27  1  0
  3 28  1  0
  3 29  1  0
  3 30  1  0
  4 31  1  0
  4 32  1  0
  6 33  1  0
  6 34  1  0
  7 35  1  0
  7 36  1  0
  8 37  1  0
  9 38  1  0
  9 39  1  0
 11 40  1  0
 11 41  1  0
 11 42  1  0
 12 43  1  0
 12 44  1  0
 13 45  1  0
 13 46  1  0
 15 47  1  0
 18 48  1  0
 19 49  1  0
 20 50  1  0
 21 51  1  0
 23 52  1  0
 23 53  1  0
M  END
>  <Energy>  (183) 
88.324669337886277

>  <compound_id>  (183) 
12769

>  <target_id>  (183) 
1

>  <reference_id>  (183) 
3

>  <inspiration_ids>  (183) 
[3, 94]

>  <energy_score>  (183) 
-4.4182427275482326

>  <distance_score>  (183) 
3.3506857226971816

>  <path>  (183) 
/opt/xchem-fragalysis-2/maxwin/BulkDock/SCRATCH/511014/C12769-P3/C12769-P3.minimised.mol

>  <scratch_subdir>  (183) 
/opt/xchem-fragalysis-2/maxwin/BulkDock/SCRATCH/511014/C12769-P3

>  <fragmenstein_runtime>  (183) 
4.783548593521118

>  <fragmenstein_outcome>  (183) 
too moved

>  <fragmenstein_mode>  (183) 
expansion

>  <fragmenstein_error>  (183) 


$$$$
C12769-P94
     RDKit          3D

 53 55  0  0  0  0  0  0  0  0999 V2000
  -13.9869  -21.4375   33.1806 C   0  0  0  0  0  0  0  0  0  0  0  0
  -12.5288  -21.8821   33.3927 C   0  0  0  0  0  0  0  0  0  0  0  0
  -12.5268  -23.3231   33.8988 C   0  0  0  0  0  0  0  0  0  0  0  0
  -11.5004  -21.6211   32.2413 C   0  0  0  0  0  0  0  0  0  0  0  0
  -12.0299  -21.7571   30.9114 N   0  0  0  0  0  0  0  0  0  0  0  0
  -11.3538  -21.4136   29.6943 C   0  0  0  0  0  0  0  0  0  0  0  0
  -11.2586  -22.6197   28.7818 C   0  0  0  0  0  0  0  0  0  0  0  0
  -11.7491  -23.7561   29.6378 C   0  0  0  0  0  0  0  0  0  0  0  0
  -10.6957  -24.5706   30.3719 C   0  0  0  0  0  0  0  0  0  0  0  0
  -11.2436  -25.7743   30.9923 N   0  0  0  0  0  0  0  0  0  0  0  0
  -10.5240  -25.9592   32.2564 C   0  0  0  0  0  0  0  0  0  0  0  0
  -11.0617  -26.9758   30.1787 C   0  0  0  0  0  0  0  0  0  0  0  0
  -11.8209  -27.2205   28.8448 C   0  0  0  0  0  0  0  0  0  0  0  0
  -11.6180  -26.2973   27.7773 N   0  0  0  0  0  0  0  0  0  0  0  0
  -10.4413  -25.6981   27.4805 C   0  0  0  0  0  0  0  0  0  0  0  0
  -10.6137  -24.7063   26.6458 N   0  0  0  0  0  0  0  0  0  0  0  0
  -11.9311  -24.7796   26.2852 C   0  0  0  0  0  0  0  0  0  0  0  0
  -12.6673  -23.9644   25.4340 C   0  0  0  0  0  0  0  0  0  0  0  0
  -13.9816  -24.3299   25.1174 C   0  0  0  0  0  0  0  0  0  0  0  0
  -14.5635  -25.4658   25.6683 C   0  0  0  0  0  0  0  0  0  0  0  0
  -13.8872  -26.2120   26.6329 C   0  0  0  0  0  0  0  0  0  0  0  0
  -12.5659  -25.8458   26.9046 C   0  0  0  0  0  0  0  0  0  0  0  0
  -12.6028  -23.0122   30.6108 C   0  0  0  0  0  0  0  0  0  0  0  0
  -14.1132  -20.3871   33.4495 H   0  0  0  0  0  0  0  0  0  0  0  0
  -14.6765  -21.9737   33.8428 H   0  0  0  0  0  0  0  0  0  0  0  0
  -14.3484  -21.5890   32.1628 H   0  0  0  0  0  0  0  0  0  0  0  0
  -12.1771  -21.2766   34.2382 H   0  0  0  0  0  0  0  0  0  0  0  0
  -13.3857  -23.5008   34.5487 H   0  0  0  0  0  0  0  0  0  0  0  0
  -12.5907  -24.1101   33.1623 H   0  0  0  0  0  0  0  0  0  0  0  0
  -11.6243  -23.5220   34.4664 H   0  0  0  0  0  0  0  0  0  0  0  0
  -11.1174  -20.6071   32.3755 H   0  0  0  0  0  0  0  0  0  0  0  0
  -10.6449  -22.2845   32.3750 H   0  0  0  0  0  0  0  0  0  0  0  0
  -12.0112  -20.7203   29.1799 H   0  0  0  0  0  0  0  0  0  0  0  0
  -10.4103  -20.9556   29.8851 H   0  0  0  0  0  0  0  0  0  0  0  0
  -11.9387  -22.4722   27.9381 H   0  0  0  0  0  0  0  0  0  0  0  0
  -10.2700  -22.7730   28.3539 H   0  0  0  0  0  0  0  0  0  0  0  0
  -12.3731  -24.4227   29.0681 H   0  0  0  0  0  0  0  0  0  0  0  0
  -10.3076  -23.9520   31.1819 H   0  0  0  0  0  0  0  0  0  0  0  0
   -9.8284  -24.8130   29.7549 H   0  0  0  0  0  0  0  0  0  0  0  0
   -9.4429  -25.9712   32.0834 H   0  0  0  0  0  0  0  0  0  0  0  0
  -10.8443  -26.8786   32.7425 H   0  0  0  0  0  0  0  0  0  0  0  0
  -10.7239  -25.1538   32.9650 H   0  0  0  0  0  0  0  0  0  0  0  0
   -9.9881  -27.0826   29.9938 H   0  0  0  0  0  0  0  0  0  0  0  0
  -11.3605  -27.8166   30.8180 H   0  0  0  0  0  0  0  0  0  0  0  0
  -11.5568  -28.1731   28.3968 H   0  0  0  0  0  0  0  0  0  0  0  0
  -12.8802  -27.3915   28.9724 H   0  0  0  0  0  0  0  0  0  0  0  0
   -9.5057  -25.9790   27.9414 H   0  0  0  0  0  0  0  0  0  0  0  0
  -12.2122  -23.0902   24.9827 H   0  0  0  0  0  0  0  0  0  0  0  0
  -14.5370  -23.7133   24.4177 H   0  0  0  0  0  0  0  0  0  0  0  0
  -15.5780  -25.7379   25.3881 H   0  0  0  0  0  0  0  0  0  0  0  0
  -14.3629  -27.0566   27.1136 H   0  0  0  0  0  0  0  0  0  0  0  0
  -12.7635  -23.6057   31.4763 H   0  0  0  0  0  0  0  0  0  0  0  0
  -13.5168  -22.6744   30.1503 H   0  0  0  0  0  0  0  0  0  0  0  0
  1  2  1  0
  2  3  1  0
  2  4  1  0
  4  5  1  0
  5  6  1  0
  6  7  1  0
  7  8  1  0
  8  9  1  0
  9 10  1  0
 10 11  1  0
 10 12  1  0
 12 13  1  0
 13 14  1  0
 14 15  1  0
 15 16  2  0
 16 17  1  0
 17 18  2  0
 18 19  1  0
 19 20  2  0
 20 21  1  0
 21 22  2  0
  8 23  1  0
 23  5  1  0
 22 14  1  0
 22 17  1  0
  1 24  1  0
  1 25  1  0
  1 26  1  0
  2 27  1  0
  3 28  1  0
  3 29  1  0
  3 30  1  0
  4 31  1  0
  4 32  1  0
  6 33  1  0
  6 34  1  0
  7 35  1  0
  7 36  1  0
  8 37  1  0
  9 38  1  0
  9 39  1  0
 11 40  1  0
 11 41  1  0
 11 42  1  0
 12 43  1  0
 12 44  1  0
 13 45  1  0
 13 46  1  0
 15 47  1  0
 18 48  1  0
 19 49  1  0
 20 50  1  0
 21 51  1  0
 23 52  1  0
 23 53  1  0
M  END
>  <Energy>  (184) 
100.83931579206848

>  <compound_id>  (184) 
12769

>  <target_id>  (184) 
1

>  <reference_id>  (184) 
94

>  <inspiration_ids>  (184) 
[3, 94]

>  <energy_score>  (184) 
-6.796820100473155

>  <distance_score>  (184) 
5.095077323261922

>  <path>  (184) 
/opt/xchem-fragalysis-2/maxwin/BulkDock/SCRATCH/511014/C12769-P94/C12769-P94.minimised.mol

>  <scratch_subdir>  (184) 
/opt/xchem-fragalysis-2/maxwin/BulkDock/SCRATCH/511014/C12769-P94

>  <fragmenstein_runtime>  (184) 
10.700486421585083

>  <fragmenstein_outcome>  (184) 
too moved

>  <fragmenstein_mode>  (184) 
expansion

>  <fragmenstein_error>  (184) 


$$$$
C12773-P3
     RDKit          3D

 43 45  0  0  0  0  0  0  0  0999 V2000
  -10.5129  -22.5026   29.0679 O   0  0  0  0  0  0  0  0  0  0  0  0
  -11.1367  -22.0583   28.1091 C   0  0  0  0  0  0  0  0  0  0  0  0
  -11.2244  -20.7373   27.9003 O   0  0  0  0  0  0  0  0  0  0  0  0
  -11.9339  -22.9752   27.1761 C   0  0  0  0  0  0  0  0  0  0  0  0
  -12.3874  -22.5285   25.8004 C   0  0  0  0  0  0  0  0  0  0  0  0
  -13.6378  -23.3810   25.5698 C   0  0  0  0  0  0  0  0  0  0  0  0
  -14.3063  -23.3246   26.9110 C   0  0  0  0  0  0  0  0  0  0  0  0
  -15.4561  -24.2912   27.3262 C   0  0  0  0  0  0  0  0  0  0  0  0
  -15.9269  -25.1157   26.6410 O   0  0  0  0  0  0  0  0  0  0  0  0
  -15.7719  -23.9046   28.8135 N   0  0  0  0  0  0  0  0  0  0  0  0
  -16.6660  -24.5235   29.7804 C   0  0  0  0  0  0  0  0  0  0  0  0
  -16.2206  -24.2979   31.2514 C   0  0  0  0  0  0  0  0  0  0  0  0
  -15.4492  -25.4133   31.9938 C   0  0  0  0  0  0  0  0  0  0  0  0
  -14.1337  -25.9264   31.6809 N   0  0  0  0  0  0  0  0  0  0  0  0
  -13.3572  -26.5702   32.6266 C   0  0  0  0  0  0  0  0  0  0  0  0
  -12.1723  -26.8869   32.1725 N   0  0  0  0  0  0  0  0  0  0  0  0
  -12.2884  -26.7244   30.8254 C   0  0  0  0  0  0  0  0  0  0  0  0
  -11.4510  -27.1690   29.7994 C   0  0  0  0  0  0  0  0  0  0  0  0
  -11.7582  -26.9630   28.4653 C   0  0  0  0  0  0  0  0  0  0  0  0
  -13.0300  -26.5578   28.1486 C   0  0  0  0  0  0  0  0  0  0  0  0
  -13.9429  -26.2467   29.1611 C   0  0  0  0  0  0  0  0  0  0  0  0
  -13.5279  -26.1955   30.4855 C   0  0  0  0  0  0  0  0  0  0  0  0
  -13.1849  -23.3254   27.8748 N   0  0  0  0  0  0  0  0  0  0  0  0
  -11.7849  -20.4138   27.1772 H   0  0  0  0  0  0  0  0  0  0  0  0
  -11.3337  -23.8845   27.0428 H   0  0  0  0  0  0  0  0  0  0  0  0
  -12.6637  -21.4695   25.7666 H   0  0  0  0  0  0  0  0  0  0  0  0
  -11.6199  -22.6894   25.0391 H   0  0  0  0  0  0  0  0  0  0  0  0
  -13.4098  -24.4213   25.3287 H   0  0  0  0  0  0  0  0  0  0  0  0
  -14.2570  -22.9582   24.7764 H   0  0  0  0  0  0  0  0  0  0  0  0
  -14.7835  -22.3610   26.9339 H   0  0  0  0  0  0  0  0  0  0  0  0
  -15.1179  -23.1953   29.1262 H   0  0  0  0  0  0  0  0  0  0  0  0
  -17.6254  -24.0142   29.6311 H   0  0  0  0  0  0  0  0  0  0  0  0
  -16.8392  -25.5760   29.5438 H   0  0  0  0  0  0  0  0  0  0  0  0
  -15.7908  -23.3111   31.3622 H   0  0  0  0  0  0  0  0  0  0  0  0
  -17.1647  -24.2207   31.8133 H   0  0  0  0  0  0  0  0  0  0  0  0
  -15.4114  -25.1034   33.0463 H   0  0  0  0  0  0  0  0  0  0  0  0
  -16.0930  -26.3047   31.9783 H   0  0  0  0  0  0  0  0  0  0  0  0
  -13.7099  -26.7587   33.6331 H   0  0  0  0  0  0  0  0  0  0  0  0
  -10.6221  -27.8096   30.0391 H   0  0  0  0  0  0  0  0  0  0  0  0
  -11.0696  -27.2856   27.6977 H   0  0  0  0  0  0  0  0  0  0  0  0
  -13.3645  -26.5834   27.1129 H   0  0  0  0  0  0  0  0  0  0  0  0
  -14.9819  -26.1722   28.8930 H   0  0  0  0  0  0  0  0  0  0  0  0
  -13.0492  -24.2367   28.3031 H   0  0  0  0  0  0  0  0  0  0  0  0
  1  2  2  0
  2  3  1  0
  2  4  1  0
  4  5  1  0
  5  6  1  0
  6  7  1  0
  7  8  1  0
  8  9  2  0
  8 10  1  0
 10 11  1  0
 11 12  1  0
 12 13  1  0
 13 14  1  0
 14 15  1  0
 15 16  2  0
 16 17  1  0
 17 18  2  0
 18 19  1  0
 19 20  2  0
 20 21  1  0
 21 22  2  0
  7 23  1  0
 23  4  1  0
 22 14  1  0
 22 17  1  0
  3 24  1  0
  4 25  1  0
  5 26  1  0
  5 27  1  0
  6 28  1  0
  6 29  1  0
  7 30  1  0
 10 31  1  0
 11 32  1  0
 11 33  1  0
 12 34  1  0
 12 35  1  0
 13 36  1  0
 13 37  1  0
 15 38  1  0
 18 39  1  0
 19 40  1  0
 20 41  1  0
 21 42  1  0
 23 43  1  0
M  END
>  <Energy>  (185) 
115.01329999169701

>  <compound_id>  (185) 
12773

>  <target_id>  (185) 
1

>  <reference_id>  (185) 
3

>  <inspiration_ids>  (185) 
[3, 94]

>  <energy_score>  (185) 
24.902991738117805

>  <distance_score>  (185) 
3.614254860195469

>  <path>  (185) 
/opt/xchem-fragalysis-2/maxwin/BulkDock/SCRATCH/511014/C12773-P3/C12773-P3.minimised.mol

>  <scratch_subdir>  (185) 
/opt/xchem-fragalysis-2/maxwin/BulkDock/SCRATCH/511014/C12773-P3

>  <fragmenstein_runtime>  (185) 
5.530700445175171

>  <fragmenstein_outcome>  (185) 
too moved

>  <fragmenstein_mode>  (185) 
expansion

>  <fragmenstein_error>  (185) 


$$$$
C12773-P94
     RDKit          3D

 43 45  0  0  0  0  0  0  0  0999 V2000
  -12.6437  -26.7387   27.3445 O   0  0  0  0  0  0  0  0  0  0  0  0
  -11.6113  -26.2746   26.8861 C   0  0  0  0  0  0  0  0  0  0  0  0
  -10.8401  -26.9833   26.0350 O   0  0  0  0  0  0  0  0  0  0  0  0
  -11.0337  -24.9129   27.1240 C   0  0  0  0  0  0  0  0  0  0  0  0
  -11.5402  -23.9874   26.0649 C   0  0  0  0  0  0  0  0  0  0  0  0
  -11.8102  -22.7608   26.8943 C   0  0  0  0  0  0  0  0  0  0  0  0
  -11.1814  -22.8808   28.2391 C   0  0  0  0  0  0  0  0  0  0  0  0
  -11.7974  -21.9470   29.3346 C   0  0  0  0  0  0  0  0  0  0  0  0
  -12.3959  -21.0053   29.0444 O   0  0  0  0  0  0  0  0  0  0  0  0
  -11.3720  -22.4591   30.6948 N   0  0  0  0  0  0  0  0  0  0  0  0
  -11.5088  -21.8745   31.9930 C   0  0  0  0  0  0  0  0  0  0  0  0
  -12.8256  -22.2164   32.6629 C   0  0  0  0  0  0  0  0  0  0  0  0
  -12.7175  -23.4222   33.5831 C   0  0  0  0  0  0  0  0  0  0  0  0
  -11.7113  -24.4193   33.3335 N   0  0  0  0  0  0  0  0  0  0  0  0
  -10.9123  -24.9455   34.2867 C   0  0  0  0  0  0  0  0  0  0  0  0
   -9.7657  -25.3671   33.8384 N   0  0  0  0  0  0  0  0  0  0  0  0
   -9.9970  -25.4374   32.5224 C   0  0  0  0  0  0  0  0  0  0  0  0
   -9.1847  -25.9119   31.5211 C   0  0  0  0  0  0  0  0  0  0  0  0
   -9.7998  -26.3689   30.3734 C   0  0  0  0  0  0  0  0  0  0  0  0
  -11.1203  -26.1409   30.1877 C   0  0  0  0  0  0  0  0  0  0  0  0
  -11.7409  -25.1927   30.9620 C   0  0  0  0  0  0  0  0  0  0  0  0
  -11.2616  -25.0076   32.2127 C   0  0  0  0  0  0  0  0  0  0  0  0
  -11.4763  -24.2912   28.3843 N   0  0  0  0  0  0  0  0  0  0  0  0
  -11.2333  -27.8763   26.0423 H   0  0  0  0  0  0  0  0  0  0  0  0
   -9.9473  -24.9733   27.1704 H   0  0  0  0  0  0  0  0  0  0  0  0
  -10.8133  -23.8821   25.2625 H   0  0  0  0  0  0  0  0  0  0  0  0
  -12.4702  -24.3263   25.5912 H   0  0  0  0  0  0  0  0  0  0  0  0
  -12.8698  -22.8529   27.0884 H   0  0  0  0  0  0  0  0  0  0  0  0
  -11.5682  -21.8179   26.4327 H   0  0  0  0  0  0  0  0  0  0  0  0
  -10.1086  -22.7135   28.2145 H   0  0  0  0  0  0  0  0  0  0  0  0
  -10.7873  -23.2736   30.5795 H   0  0  0  0  0  0  0  0  0  0  0  0
  -11.3983  -20.8019   31.8899 H   0  0  0  0  0  0  0  0  0  0  0  0
  -10.6555  -22.2236   32.5617 H   0  0  0  0  0  0  0  0  0  0  0  0
  -13.1437  -21.3664   33.2804 H   0  0  0  0  0  0  0  0  0  0  0  0
  -13.6095  -22.3353   31.9148 H   0  0  0  0  0  0  0  0  0  0  0  0
  -12.4220  -23.0039   34.5420 H   0  0  0  0  0  0  0  0  0  0  0  0
  -13.6801  -23.8995   33.7517 H   0  0  0  0  0  0  0  0  0  0  0  0
  -11.0808  -24.8338   35.3232 H   0  0  0  0  0  0  0  0  0  0  0  0
   -8.1754  -26.1358   31.8076 H   0  0  0  0  0  0  0  0  0  0  0  0
   -9.2909  -26.9509   29.6294 H   0  0  0  0  0  0  0  0  0  0  0  0
  -11.6191  -26.5791   29.3459 H   0  0  0  0  0  0  0  0  0  0  0  0
  -12.5974  -24.6599   30.6182 H   0  0  0  0  0  0  0  0  0  0  0  0
  -12.5019  -24.3873   28.4466 H   0  0  0  0  0  0  0  0  0  0  0  0
  1  2  2  0
  2  3  1  0
  2  4  1  0
  4  5  1  0
  5  6  1  0
  6  7  1  0
  7  8  1  0
  8  9  2  0
  8 10  1  0
 10 11  1  0
 11 12  1  0
 12 13  1  0
 13 14  1  0
 14 15  1  0
 15 16  2  0
 16 17  1  0
 17 18  2  0
 18 19  1  0
 19 20  2  0
 20 21  1  0
 21 22  2  0
  7 23  1  0
 23  4  1  0
 22 14  1  0
 22 17  1  0
  3 24  1  0
  4 25  1  0
  5 26  1  0
  5 27  1  0
  6 28  1  0
  6 29  1  0
  7 30  1  0
 10 31  1  0
 11 32  1  0
 11 33  1  0
 12 34  1  0
 12 35  1  0
 13 36  1  0
 13 37  1  0
 15 38  1  0
 18 39  1  0
 19 40  1  0
 20 41  1  0
 21 42  1  0
 23 43  1  0
M  END
>  <Energy>  (186) 
134.31005259482529

>  <compound_id>  (186) 
12773

>  <target_id>  (186) 
1

>  <reference_id>  (186) 
94

>  <inspiration_ids>  (186) 
[3, 94]

>  <energy_score>  (186) 
44.199744341247595

>  <distance_score>  (186) 
3.2593913620810766

>  <path>  (186) 
/opt/xchem-fragalysis-2/maxwin/BulkDock/SCRATCH/511014/C12773-P94/C12773-P94.minimised.mol

>  <scratch_subdir>  (186) 
/opt/xchem-fragalysis-2/maxwin/BulkDock/SCRATCH/511014/C12773-P94

>  <fragmenstein_runtime>  (186) 
7.096332788467407

>  <fragmenstein_outcome>  (186) 
too moved

>  <fragmenstein_mode>  (186) 
expansion

>  <fragmenstein_error>  (186) 


$$$$
C12782-P3
     RDKit          3D

 45 48  0  0  0  0  0  0  0  0999 V2000
   -9.3996  -23.8418   30.2526 O   0  0  0  0  0  0  0  0  0  0  0  0
  -10.7801  -23.8707   30.6357 S   0  0  0  0  0  0  0  0  0  0  0  0
  -11.8504  -23.2827   29.8714 O   0  0  0  0  0  0  0  0  0  0  0  0
  -11.1699  -25.3411   31.5091 C   0  0  0  0  0  0  0  0  0  0  0  0
  -12.5525  -25.8605   31.8771 C   0  0  0  0  0  0  0  0  0  0  0  0
  -13.0114  -26.7619   30.8321 N   0  0  0  0  0  0  0  0  0  0  0  0
  -12.4307  -28.0007   30.7828 C   0  0  0  0  0  0  0  0  0  0  0  0
  -11.6724  -28.0713   29.7163 N   0  0  0  0  0  0  0  0  0  0  0  0
  -12.0416  -26.9932   28.9473 C   0  0  0  0  0  0  0  0  0  0  0  0
  -11.4981  -26.5071   27.7658 C   0  0  0  0  0  0  0  0  0  0  0  0
  -12.0403  -25.3587   27.1865 C   0  0  0  0  0  0  0  0  0  0  0  0
  -13.1450  -24.7262   27.7552 C   0  0  0  0  0  0  0  0  0  0  0  0
  -13.6884  -25.1682   28.9659 C   0  0  0  0  0  0  0  0  0  0  0  0
  -13.0655  -26.2736   29.5459 C   0  0  0  0  0  0  0  0  0  0  0  0
  -10.8823  -22.9781   31.9570 N   0  0  0  0  0  0  0  0  0  0  0  0
  -10.0098  -21.9387   32.2730 C   0  0  0  0  0  0  0  0  0  0  0  0
  -10.8154  -20.7343   31.9866 C   0  0  0  0  0  0  0  0  0  0  0  0
  -10.3396  -19.5216   32.6079 C   0  0  0  0  0  0  0  0  0  0  0  0
  -10.9404  -18.4710   31.7594 C   0  0  0  0  0  0  0  0  0  0  0  0
  -10.9317  -19.0080   30.3908 N   0  0  0  0  0  0  0  0  0  0  0  0
  -11.0597  -20.4496   30.5220 C   0  0  0  0  0  0  0  0  0  0  0  0
   -8.5215  -22.0489   32.4327 C   0  0  0  0  0  0  0  0  0  0  0  0
   -9.3909  -22.1631   33.6299 C   0  0  0  0  0  0  0  0  0  0  0  0
  -10.5309  -25.3493   32.4019 H   0  0  0  0  0  0  0  0  0  0  0  0
  -10.7047  -26.0280   30.8174 H   0  0  0  0  0  0  0  0  0  0  0  0
  -12.4552  -26.4906   32.7729 H   0  0  0  0  0  0  0  0  0  0  0  0
  -13.4229  -25.2478   32.0404 H   0  0  0  0  0  0  0  0  0  0  0  0
  -12.4549  -28.7068   31.6016 H   0  0  0  0  0  0  0  0  0  0  0  0
  -10.6571  -27.0169   27.3312 H   0  0  0  0  0  0  0  0  0  0  0  0
  -11.6040  -24.9634   26.2741 H   0  0  0  0  0  0  0  0  0  0  0  0
  -13.5585  -23.8402   27.2770 H   0  0  0  0  0  0  0  0  0  0  0  0
  -14.4947  -24.6315   29.4511 H   0  0  0  0  0  0  0  0  0  0  0  0
  -11.8358  -22.6333   32.0287 H   0  0  0  0  0  0  0  0  0  0  0  0
  -11.7995  -20.8331   32.4481 H   0  0  0  0  0  0  0  0  0  0  0  0
   -9.2609  -19.5394   32.5784 H   0  0  0  0  0  0  0  0  0  0  0  0
  -10.7197  -19.4798   33.6336 H   0  0  0  0  0  0  0  0  0  0  0  0
  -10.3676  -17.5498   31.8616 H   0  0  0  0  0  0  0  0  0  0  0  0
  -11.9575  -18.3194   32.1287 H   0  0  0  0  0  0  0  0  0  0  0  0
  -11.7580  -18.7036   29.8790 H   0  0  0  0  0  0  0  0  0  0  0  0
  -10.4067  -20.9814   29.8266 H   0  0  0  0  0  0  0  0  0  0  0  0
  -12.0673  -20.7573   30.2565 H   0  0  0  0  0  0  0  0  0  0  0  0
   -8.0151  -22.9514   32.1107 H   0  0  0  0  0  0  0  0  0  0  0  0
   -7.8909  -21.1802   32.4222 H   0  0  0  0  0  0  0  0  0  0  0  0
   -9.4410  -21.3772   34.3485 H   0  0  0  0  0  0  0  0  0  0  0  0
   -9.4949  -23.1444   34.0639 H   0  0  0  0  0  0  0  0  0  0  0  0
  1  2  2  0
  2  3  2  0
  2  4  1  0
  4  5  1  0
  5  6  1  0
  6  7  1  0
  7  8  2  0
  8  9  1  0
  9 10  2  0
 10 11  1  0
 11 12  2  0
 12 13  1  0
 13 14  2  0
  2 15  1  0
 15 16  1  0
 16 17  1  0
 17 18  1  0
 18 19  1  0
 19 20  1  0
 20 21  1  0
 16 22  1  0
 22 23  1  0
 14  6  1  0
 23 16  1  0
 14  9  1  0
 21 17  1  0
  4 24  1  0
  4 25  1  0
  5 26  1  0
  5 27  1  0
  7 28  1  0
 10 29  1  0
 11 30  1  0
 12 31  1  0
 13 32  1  0
 15 33  1  0
 17 34  1  0
 18 35  1  0
 18 36  1  0
 19 37  1  0
 19 38  1  0
 20 39  1  0
 21 40  1  0
 21 41  1  0
 22 42  1  0
 22 43  1  0
 23 44  1  0
 23 45  1  0
M  END
>  <Energy>  (187) 
39.023549403433506

>  <compound_id>  (187) 
12782

>  <target_id>  (187) 
1

>  <reference_id>  (187) 
3

>  <inspiration_ids>  (187) 
[3, 94]

>  <energy_score>  (187) 
18.824774692419908

>  <distance_score>  (187) 
3.185313883607653

>  <path>  (187) 
/opt/xchem-fragalysis-2/maxwin/BulkDock/SCRATCH/511014/C12782-P3/C12782-P3.minimised.mol

>  <scratch_subdir>  (187) 
/opt/xchem-fragalysis-2/maxwin/BulkDock/SCRATCH/511014/C12782-P3

>  <fragmenstein_runtime>  (187) 
4.729295492172241

>  <fragmenstein_outcome>  (187) 
too moved

>  <fragmenstein_mode>  (187) 
expansion

>  <fragmenstein_error>  (187) 


$$$$
C12782-P94
     RDKit          3D

 45 48  0  0  0  0  0  0  0  0999 V2000
  -14.6529  -21.6928   32.5185 O   0  0  0  0  0  0  0  0  0  0  0  0
  -13.3416  -21.9745   33.0687 S   0  0  0  0  0  0  0  0  0  0  0  0
  -12.8439  -21.1159   34.1223 O   0  0  0  0  0  0  0  0  0  0  0  0
  -13.2049  -23.7419   33.5629 C   0  0  0  0  0  0  0  0  0  0  0  0
  -12.2357  -24.6989   32.7488 C   0  0  0  0  0  0  0  0  0  0  0  0
  -11.8118  -25.6124   31.6731 N   0  0  0  0  0  0  0  0  0  0  0  0
  -10.9716  -26.6700   31.9195 C   0  0  0  0  0  0  0  0  0  0  0  0
  -10.2803  -27.0561   30.8771 N   0  0  0  0  0  0  0  0  0  0  0  0
  -10.6041  -26.2021   29.8807 C   0  0  0  0  0  0  0  0  0  0  0  0
  -10.0427  -26.0177   28.6071 C   0  0  0  0  0  0  0  0  0  0  0  0
  -10.5687  -25.0730   27.7251 C   0  0  0  0  0  0  0  0  0  0  0  0
  -11.5961  -24.2593   28.1152 C   0  0  0  0  0  0  0  0  0  0  0  0
  -12.1019  -24.3890   29.3996 C   0  0  0  0  0  0  0  0  0  0  0  0
  -11.6148  -25.3568   30.2928 C   0  0  0  0  0  0  0  0  0  0  0  0
  -12.3016  -21.7324   31.8045 N   0  0  0  0  0  0  0  0  0  0  0  0
  -10.8143  -21.8574   31.9659 C   0  0  0  0  0  0  0  0  0  0  0  0
  -10.1210  -20.6040   31.4387 C   0  0  0  0  0  0  0  0  0  0  0  0
   -9.0318  -19.2788   32.3459 C   0  0  0  0  0  0  0  0  0  0  0  0
   -7.6835  -18.3364   30.7392 C   0  0  0  0  0  0  0  0  0  0  0  0
   -8.4252  -19.1019   28.8442 N   0  0  0  0  0  0  0  0  0  0  0  0
   -9.9544  -20.4577   29.4879 C   0  0  0  0  0  0  0  0  0  0  0  0
  -10.4288  -23.2554   31.4888 C   0  0  0  0  0  0  0  0  0  0  0  0
  -10.2365  -22.8652   32.8580 C   0  0  0  0  0  0  0  0  0  0  0  0
  -12.7096  -23.6165   34.5241 H   0  0  0  0  0  0  0  0  0  0  0  0
  -14.2048  -24.0348   33.8315 H   0  0  0  0  0  0  0  0  0  0  0  0
  -12.2421  -23.9291   32.0261 H   0  0  0  0  0  0  0  0  0  0  0  0
  -11.4162  -24.8565   33.4531 H   0  0  0  0  0  0  0  0  0  0  0  0
  -10.8388  -27.0594   32.9108 H   0  0  0  0  0  0  0  0  0  0  0  0
   -9.1658  -26.5788   28.3249 H   0  0  0  0  0  0  0  0  0  0  0  0
  -10.1647  -24.9246   26.7388 H   0  0  0  0  0  0  0  0  0  0  0  0
  -11.9771  -23.4883   27.4481 H   0  0  0  0  0  0  0  0  0  0  0  0
  -12.7873  -23.6398   29.7503 H   0  0  0  0  0  0  0  0  0  0  0  0
  -12.7030  -21.9772   30.9026 H   0  0  0  0  0  0  0  0  0  0  0  0
  -10.9783  -20.0752   31.7574 H   0  0  0  0  0  0  0  0  0  0  0  0
   -8.4937  -19.8160   33.1953 H   0  0  0  0  0  0  0  0  0  0  0  0
   -9.6567  -18.7124   33.0836 H   0  0  0  0  0  0  0  0  0  0  0  0
   -6.7954  -18.8321   30.3998 H   0  0  0  0  0  0  0  0  0  0  0  0
   -6.8690  -17.7759   31.2843 H   0  0  0  0  0  0  0  0  0  0  0  0
   -7.6642  -19.6204   28.4463 H   0  0  0  0  0  0  0  0  0  0  0  0
  -10.0170  -21.4310   28.9112 H   0  0  0  0  0  0  0  0  0  0  0  0
  -11.0310  -20.3523   29.3505 H   0  0  0  0  0  0  0  0  0  0  0  0
  -10.9165  -23.1186   30.5549 H   0  0  0  0  0  0  0  0  0  0  0  0
   -9.6480  -24.0065   31.3843 H   0  0  0  0  0  0  0  0  0  0  0  0
   -9.1880  -23.0371   33.1076 H   0  0  0  0  0  0  0  0  0  0  0  0
  -10.8659  -23.0940   33.6875 H   0  0  0  0  0  0  0  0  0  0  0  0
  1  2  2  0
  2  3  2  0
  2  4  1  0
  4  5  1  0
  5  6  1  0
  6  7  1  0
  7  8  2  0
  8  9  1  0
  9 10  2  0
 10 11  1  0
 11 12  2  0
 12 13  1  0
 13 14  2  0
  2 15  1  0
 15 16  1  0
 16 17  1  0
 17 18  1  0
 18 19  1  0
 19 20  1  0
 20 21  1  0
 16 22  1  0
 22 23  1  0
 14  6  1  0
 23 16  1  0
 14  9  1  0
 21 17  1  0
  4 24  1  0
  4 25  1  0
  5 26  1  0
  5 27  1  0
  7 28  1  0
 10 29  1  0
 11 30  1  0
 12 31  1  0
 13 32  1  0
 15 33  1  0
 17 34  1  0
 18 35  1  0
 18 36  1  0
 19 37  1  0
 19 38  1  0
 20 39  1  0
 21 40  1  0
 21 41  1  0
 22 42  1  0
 22 43  1  0
 23 44  1  0
 23 45  1  0
M  END
>  <Energy>  (188) 
772.4616962212009

>  <compound_id>  (188) 
12782

>  <target_id>  (188) 
1

>  <reference_id>  (188) 
94

>  <inspiration_ids>  (188) 
[3, 94]

>  <energy_score>  (188) 
757.3056893357632

>  <distance_score>  (188) 
1.9945199847419108

>  <path>  (188) 
/opt/xchem-fragalysis-2/maxwin/BulkDock/SCRATCH/511014/C12782-P94/C12782-P94.minimised.mol

>  <scratch_subdir>  (188) 
/opt/xchem-fragalysis-2/maxwin/BulkDock/SCRATCH/511014/C12782-P94

>  <fragmenstein_runtime>  (188) 
6.78085732460022

>  <fragmenstein_outcome>  (188) 
too moved

>  <fragmenstein_mode>  (188) 
expansion

>  <fragmenstein_error>  (188) 


$$$$
C12785-P3
     RDKit          3D

 41 44  0  0  0  0  0  0  0  0999 V2000
  -10.6801  -22.3608   26.9937 O   0  0  0  0  0  0  0  0  0  0  0  0
  -11.5144  -21.6793   27.4581 C   0  0  0  0  0  0  0  0  0  0  0  0
  -11.6375  -21.0588   28.8970 N   0  0  0  0  0  0  0  0  0  0  0  0
  -10.8438  -21.2280   30.0178 C   0  0  0  0  0  0  0  0  0  0  0  0
   -9.6909  -21.9319   29.7731 C   0  0  0  0  0  0  0  0  0  0  0  0
   -9.0427  -22.6939   30.7245 C   0  0  0  0  0  0  0  0  0  0  0  0
   -9.7461  -22.9358   31.8511 C   0  0  0  0  0  0  0  0  0  0  0  0
  -10.2643  -24.2710   31.8031 N   0  0  0  0  0  0  0  0  0  0  0  0
  -10.2071  -25.1722   32.8169 C   0  0  0  0  0  0  0  0  0  0  0  0
  -11.2007  -26.0431   32.7598 N   0  0  0  0  0  0  0  0  0  0  0  0
  -11.7348  -25.8808   31.5173 C   0  0  0  0  0  0  0  0  0  0  0  0
  -12.7494  -26.6093   30.8917 C   0  0  0  0  0  0  0  0  0  0  0  0
  -13.0216  -26.3825   29.5435 C   0  0  0  0  0  0  0  0  0  0  0  0
  -12.3205  -25.4217   28.8453 C   0  0  0  0  0  0  0  0  0  0  0  0
  -11.4028  -24.6071   29.4989 C   0  0  0  0  0  0  0  0  0  0  0  0
  -11.0938  -24.8544   30.8378 C   0  0  0  0  0  0  0  0  0  0  0  0
  -10.6087  -21.9002   32.2704 C   0  0  0  0  0  0  0  0  0  0  0  0
  -11.1858  -21.0208   31.3289 C   0  0  0  0  0  0  0  0  0  0  0  0
  -12.7512  -21.3748   26.6580 C   0  0  0  0  0  0  0  0  0  0  0  0
  -13.6491  -22.6199   26.8337 C   0  0  0  0  0  0  0  0  0  0  0  0
  -13.4927  -23.3630   25.5444 C   0  0  0  0  0  0  0  0  0  0  0  0
  -13.4725  -22.2589   24.5973 N   0  0  0  0  0  0  0  0  0  0  0  0
  -12.4922  -21.3270   25.1578 C   0  0  0  0  0  0  0  0  0  0  0  0
  -12.4434  -20.4535   28.9363 H   0  0  0  0  0  0  0  0  0  0  0  0
   -9.3555  -21.8586   28.7539 H   0  0  0  0  0  0  0  0  0  0  0  0
   -8.2441  -23.3657   30.4590 H   0  0  0  0  0  0  0  0  0  0  0  0
   -9.4849  -25.0881   33.6002 H   0  0  0  0  0  0  0  0  0  0  0  0
  -13.2588  -27.3991   31.4347 H   0  0  0  0  0  0  0  0  0  0  0  0
  -13.7632  -26.9952   29.0363 H   0  0  0  0  0  0  0  0  0  0  0  0
  -12.5006  -25.2892   27.7825 H   0  0  0  0  0  0  0  0  0  0  0  0
  -10.9179  -23.8395   28.9247 H   0  0  0  0  0  0  0  0  0  0  0  0
  -10.9747  -21.8743   33.2926 H   0  0  0  0  0  0  0  0  0  0  0  0
  -11.9900  -20.3566   31.6256 H   0  0  0  0  0  0  0  0  0  0  0  0
  -13.1967  -20.4555   27.0091 H   0  0  0  0  0  0  0  0  0  0  0  0
  -14.7100  -22.4001   26.9231 H   0  0  0  0  0  0  0  0  0  0  0  0
  -13.3852  -23.2375   27.6907 H   0  0  0  0  0  0  0  0  0  0  0  0
  -12.5559  -23.9164   25.5980 H   0  0  0  0  0  0  0  0  0  0  0  0
  -14.3140  -24.0594   25.3591 H   0  0  0  0  0  0  0  0  0  0  0  0
  -13.1816  -22.5691   23.6678 H   0  0  0  0  0  0  0  0  0  0  0  0
  -11.4935  -21.6549   24.8587 H   0  0  0  0  0  0  0  0  0  0  0  0
  -12.6476  -20.3251   24.7529 H   0  0  0  0  0  0  0  0  0  0  0  0
  1  2  2  0
  2  3  1  0
  3  4  1  0
  4  5  2  0
  5  6  1  0
  6  7  2  0
  7  8  1  0
  8  9  1  0
  9 10  2  0
 10 11  1  0
 11 12  2  0
 12 13  1  0
 13 14  2  0
 14 15  1  0
 15 16  2  0
  7 17  1  0
 17 18  2  0
  2 19  1  0
 19 20  1  0
 20 21  1  0
 21 22  1  0
 22 23  1  0
 18  4  1  0
 23 19  1  0
 16  8  1  0
 16 11  1  0
  3 24  1  0
  5 25  1  0
  6 26  1  0
  9 27  1  0
 12 28  1  0
 13 29  1  0
 14 30  1  0
 15 31  1  0
 17 32  1  0
 18 33  1  0
 19 34  1  0
 20 35  1  0
 20 36  1  0
 21 37  1  0
 21 38  1  0
 22 39  1  0
 23 40  1  0
 23 41  1  0
M  END
>  <Energy>  (189) 
140.98541097060723

>  <compound_id>  (189) 
12785

>  <target_id>  (189) 
1

>  <reference_id>  (189) 
3

>  <inspiration_ids>  (189) 
[3, 94]

>  <energy_score>  (189) 
54.42474373236854

>  <distance_score>  (189) 
2.146777071896442

>  <path>  (189) 
/opt/xchem-fragalysis-2/maxwin/BulkDock/SCRATCH/511014/C12785-P3/C12785-P3.minimised.mol

>  <scratch_subdir>  (189) 
/opt/xchem-fragalysis-2/maxwin/BulkDock/SCRATCH/511014/C12785-P3

>  <fragmenstein_runtime>  (189) 
10.432519435882568

>  <fragmenstein_outcome>  (189) 
too moved

>  <fragmenstein_mode>  (189) 
expansion

>  <fragmenstein_error>  (189) 


$$$$
C12785-P94
     RDKit          3D

 41 44  0  0  0  0  0  0  0  0999 V2000
  -10.2343  -22.7232   28.1558 O   0  0  0  0  0  0  0  0  0  0  0  0
  -11.3525  -23.1213   28.2432 C   0  0  0  0  0  0  0  0  0  0  0  0
  -12.3747  -22.8342   29.2038 N   0  0  0  0  0  0  0  0  0  0  0  0
  -12.3443  -22.0912   30.3551 C   0  0  0  0  0  0  0  0  0  0  0  0
  -11.1898  -21.4845   30.7200 C   0  0  0  0  0  0  0  0  0  0  0  0
  -10.9762  -21.2270   32.0516 C   0  0  0  0  0  0  0  0  0  0  0  0
  -11.9025  -21.6969   32.9627 C   0  0  0  0  0  0  0  0  0  0  0  0
  -11.6546  -23.0340   33.4472 N   0  0  0  0  0  0  0  0  0  0  0  0
  -12.6668  -23.7596   33.9844 C   0  0  0  0  0  0  0  0  0  0  0  0
  -12.6760  -24.9483   33.4801 N   0  0  0  0  0  0  0  0  0  0  0  0
  -11.5899  -25.0592   32.6923 C   0  0  0  0  0  0  0  0  0  0  0  0
  -11.1961  -26.1044   31.8568 C   0  0  0  0  0  0  0  0  0  0  0  0
   -9.8987  -26.1257   31.4106 C   0  0  0  0  0  0  0  0  0  0  0  0
   -9.0141  -25.2036   31.9365 C   0  0  0  0  0  0  0  0  0  0  0  0
   -9.4235  -24.0938   32.6723 C   0  0  0  0  0  0  0  0  0  0  0  0
  -10.7722  -23.9822   32.9344 C   0  0  0  0  0  0  0  0  0  0  0  0
  -13.2213  -21.6162   32.5500 C   0  0  0  0  0  0  0  0  0  0  0  0
  -13.4236  -21.9859   31.2286 C   0  0  0  0  0  0  0  0  0  0  0  0
  -11.8543  -24.1816   27.2948 C   0  0  0  0  0  0  0  0  0  0  0  0
  -11.5866  -25.4994   27.9886 C   0  0  0  0  0  0  0  0  0  0  0  0
  -11.9041  -26.4622   26.8936 C   0  0  0  0  0  0  0  0  0  0  0  0
  -11.3822  -25.8376   25.6783 N   0  0  0  0  0  0  0  0  0  0  0  0
  -11.1709  -24.4101   25.9818 C   0  0  0  0  0  0  0  0  0  0  0  0
  -13.1756  -23.4153   29.0147 H   0  0  0  0  0  0  0  0  0  0  0  0
  -10.4841  -21.2243   29.9567 H   0  0  0  0  0  0  0  0  0  0  0  0
  -10.0708  -20.7234   32.3415 H   0  0  0  0  0  0  0  0  0  0  0  0
  -13.4699  -23.3613   34.5794 H   0  0  0  0  0  0  0  0  0  0  0  0
  -11.8422  -26.9449   31.6650 H   0  0  0  0  0  0  0  0  0  0  0  0
   -9.5427  -26.9775   30.8434 H   0  0  0  0  0  0  0  0  0  0  0  0
   -7.9585  -25.3871   31.8252 H   0  0  0  0  0  0  0  0  0  0  0  0
   -8.7000  -23.3916   33.0561 H   0  0  0  0  0  0  0  0  0  0  0  0
  -14.0648  -21.6628   33.2332 H   0  0  0  0  0  0  0  0  0  0  0  0
  -14.4445  -22.1535   30.9202 H   0  0  0  0  0  0  0  0  0  0  0  0
  -12.8930  -24.0303   27.0224 H   0  0  0  0  0  0  0  0  0  0  0  0
  -12.1778  -25.6526   28.8827 H   0  0  0  0  0  0  0  0  0  0  0  0
  -10.5321  -25.5879   28.2872 H   0  0  0  0  0  0  0  0  0  0  0  0
  -11.4518  -27.4326   27.0817 H   0  0  0  0  0  0  0  0  0  0  0  0
  -12.9922  -26.5751   26.8205 H   0  0  0  0  0  0  0  0  0  0  0  0
  -12.0772  -25.9665   24.9438 H   0  0  0  0  0  0  0  0  0  0  0  0
  -10.1095  -24.2314   26.0866 H   0  0  0  0  0  0  0  0  0  0  0  0
  -11.5641  -23.7709   25.1875 H   0  0  0  0  0  0  0  0  0  0  0  0
  1  2  2  0
  2  3  1  0
  3  4  1  0
  4  5  2  0
  5  6  1  0
  6  7  2  0
  7  8  1  0
  8  9  1  0
  9 10  2  0
 10 11  1  0
 11 12  2  0
 12 13  1  0
 13 14  2  0
 14 15  1  0
 15 16  2  0
  7 17  1  0
 17 18  2  0
  2 19  1  0
 19 20  1  0
 20 21  1  0
 21 22  1  0
 22 23  1  0
 18  4  1  0
 23 19  1  0
 16  8  1  0
 16 11  1  0
  3 24  1  0
  5 25  1  0
  6 26  1  0
  9 27  1  0
 12 28  1  0
 13 29  1  0
 14 30  1  0
 15 31  1  0
 17 32  1  0
 18 33  1  0
 19 34  1  0
 20 35  1  0
 20 36  1  0
 21 37  1  0
 21 38  1  0
 22 39  1  0
 23 40  1  0
 23 41  1  0
M  END
>  <Energy>  (190) 
147.94944524496503

>  <compound_id>  (190) 
12785

>  <target_id>  (190) 
1

>  <reference_id>  (190) 
94

>  <inspiration_ids>  (190) 
[3, 94]

>  <energy_score>  (190) 
55.903798367613035

>  <distance_score>  (190) 
2.7064902544622393

>  <path>  (190) 
/opt/xchem-fragalysis-2/maxwin/BulkDock/SCRATCH/511014/C12785-P94/C12785-P94.minimised.mol

>  <scratch_subdir>  (190) 
/opt/xchem-fragalysis-2/maxwin/BulkDock/SCRATCH/511014/C12785-P94

>  <fragmenstein_runtime>  (190) 
9.138437032699585

>  <fragmenstein_outcome>  (190) 
too moved

>  <fragmenstein_mode>  (190) 
expansion

>  <fragmenstein_error>  (190) 


$$$$
C6214-P3
     RDKit          3D

 43 46  0  0  0  0  0  0  0  0999 V2000
   -9.6416  -24.6097   32.8164 O   0  0  0  0  0  0  0  0  0  0  0  0
   -8.8809  -24.0372   31.7671 C   0  0  0  0  0  0  0  0  0  0  0  0
   -8.7788  -22.5425   31.9238 C   0  0  0  0  0  0  0  0  0  0  0  0
  -10.1319  -21.8768   32.1372 C   0  0  0  0  0  0  0  0  0  0  0  0
  -10.0379  -20.8672   33.2662 C   0  0  0  0  0  0  0  0  0  0  0  0
  -11.1889  -19.9309   32.9915 C   0  0  0  0  0  0  0  0  0  0  0  0
  -11.2344  -19.8527   31.4769 C   0  0  0  0  0  0  0  0  0  0  0  0
  -10.5529  -21.0564   30.9999 N   0  0  0  0  0  0  0  0  0  0  0  0
  -11.0607  -21.6924   29.8890 C   0  0  0  0  0  0  0  0  0  0  0  0
  -11.2579  -21.0221   28.6934 C   0  0  0  0  0  0  0  0  0  0  0  0
  -11.7309  -21.7260   27.5900 C   0  0  0  0  0  0  0  0  0  0  0  0
  -12.0153  -23.0844   27.7050 C   0  0  0  0  0  0  0  0  0  0  0  0
  -11.8354  -23.6894   28.9322 C   0  0  0  0  0  0  0  0  0  0  0  0
  -12.1615  -25.0469   29.2014 N   0  0  0  0  0  0  0  0  0  0  0  0
  -11.8399  -25.6772   30.3878 C   0  0  0  0  0  0  0  0  0  0  0  0
  -12.1585  -26.9458   30.4092 N   0  0  0  0  0  0  0  0  0  0  0  0
  -12.7806  -27.1527   29.2171 C   0  0  0  0  0  0  0  0  0  0  0  0
  -13.3440  -28.3420   28.7422 C   0  0  0  0  0  0  0  0  0  0  0  0
  -13.9958  -28.3309   27.5097 C   0  0  0  0  0  0  0  0  0  0  0  0
  -14.0988  -27.1561   26.7718 C   0  0  0  0  0  0  0  0  0  0  0  0
  -13.5390  -25.9605   27.2284 C   0  0  0  0  0  0  0  0  0  0  0  0
  -12.8473  -25.9844   28.4483 C   0  0  0  0  0  0  0  0  0  0  0  0
  -11.3441  -23.0028   29.9823 N   0  0  0  0  0  0  0  0  0  0  0  0
   -9.0092  -24.6959   33.5680 H   0  0  0  0  0  0  0  0  0  0  0  0
   -7.8854  -24.4743   31.8109 H   0  0  0  0  0  0  0  0  0  0  0  0
   -9.3197  -24.3053   30.8084 H   0  0  0  0  0  0  0  0  0  0  0  0
   -8.2677  -22.1540   31.0444 H   0  0  0  0  0  0  0  0  0  0  0  0
   -8.1297  -22.3540   32.7881 H   0  0  0  0  0  0  0  0  0  0  0  0
  -10.9116  -22.5850   32.3840 H   0  0  0  0  0  0  0  0  0  0  0  0
   -9.0853  -20.3334   33.2048 H   0  0  0  0  0  0  0  0  0  0  0  0
  -10.1158  -21.3542   34.2421 H   0  0  0  0  0  0  0  0  0  0  0  0
  -12.1000  -20.3530   33.4018 H   0  0  0  0  0  0  0  0  0  0  0  0
  -11.1149  -18.9432   33.4422 H   0  0  0  0  0  0  0  0  0  0  0  0
  -10.6972  -18.9679   31.1224 H   0  0  0  0  0  0  0  0  0  0  0  0
  -12.2671  -19.7865   31.1536 H   0  0  0  0  0  0  0  0  0  0  0  0
  -11.0219  -19.9668   28.6077 H   0  0  0  0  0  0  0  0  0  0  0  0
  -11.8741  -21.2160   26.6417 H   0  0  0  0  0  0  0  0  0  0  0  0
  -12.3319  -23.6080   26.8177 H   0  0  0  0  0  0  0  0  0  0  0  0
  -11.3511  -25.1601   31.1986 H   0  0  0  0  0  0  0  0  0  0  0  0
  -13.2827  -29.2487   29.3346 H   0  0  0  0  0  0  0  0  0  0  0  0
  -14.4334  -29.2505   27.1271 H   0  0  0  0  0  0  0  0  0  0  0  0
  -14.6328  -27.1708   25.8232 H   0  0  0  0  0  0  0  0  0  0  0  0
  -13.6839  -25.0659   26.6385 H   0  0  0  0  0  0  0  0  0  0  0  0
  1  2  1  0
  2  3  1  0
  3  4  1  0
  4  5  1  0
  5  6  1  0
  6  7  1  0
  7  8  1  0
  8  9  1  0
  9 10  2  0
 10 11  1  0
 11 12  2  0
 12 13  1  0
 13 14  1  0
 14 15  1  0
 15 16  2  0
 16 17  1  0
 17 18  2  0
 18 19  1  0
 19 20  2  0
 20 21  1  0
 21 22  2  0
 13 23  2  0
  8  4  1  0
 23  9  1  0
 22 14  1  0
 22 17  1  0
  1 24  1  0
  2 25  1  0
  2 26  1  0
  3 27  1  0
  3 28  1  0
  4 29  1  0
  5 30  1  0
  5 31  1  0
  6 32  1  0
  6 33  1  0
  7 34  1  0
  7 35  1  0
 10 36  1  0
 11 37  1  0
 12 38  1  0
 15 39  1  0
 18 40  1  0
 19 41  1  0
 20 42  1  0
 21 43  1  0
M  END
>  <Energy>  (191) 
40.731015588584221

>  <compound_id>  (191) 
6214

>  <target_id>  (191) 
1

>  <reference_id>  (191) 
3

>  <inspiration_ids>  (191) 
[3, 94]

>  <energy_score>  (191) 
-32.988263664602044

>  <distance_score>  (191) 
3.9937416884559815

>  <path>  (191) 
/opt/xchem-fragalysis-2/maxwin/BulkDock/SCRATCH/511014/C6214-P3/C6214-P3.minimised.mol

>  <scratch_subdir>  (191) 
/opt/xchem-fragalysis-2/maxwin/BulkDock/SCRATCH/511014/C6214-P3

>  <fragmenstein_runtime>  (191) 
5.034458637237549

>  <fragmenstein_outcome>  (191) 
too moved

>  <fragmenstein_mode>  (191) 
expansion

>  <fragmenstein_error>  (191) 


$$$$
C6214-P94
     RDKit          3D

 43 46  0  0  0  0  0  0  0  0999 V2000
  -10.4110  -22.7444   28.2500 O   0  0  0  0  0  0  0  0  0  0  0  0
  -11.6980  -22.1997   28.0791 C   0  0  0  0  0  0  0  0  0  0  0  0
  -12.1235  -21.2659   29.2295 C   0  0  0  0  0  0  0  0  0  0  0  0
  -12.3136  -21.9148   30.5503 C   0  0  0  0  0  0  0  0  0  0  0  0
  -10.9123  -22.0446   30.9632 C   0  0  0  0  0  0  0  0  0  0  0  0
  -10.7011  -21.5927   32.3291 C   0  0  0  0  0  0  0  0  0  0  0  0
  -11.9588  -21.0003   32.8258 C   0  0  0  0  0  0  0  0  0  0  0  0
  -12.9914  -21.4476   31.8400 N   0  0  0  0  0  0  0  0  0  0  0  0
  -13.2865  -22.6847   32.4524 C   0  0  0  0  0  0  0  0  0  0  0  0
  -13.9769  -22.8340   33.5884 C   0  0  0  0  0  0  0  0  0  0  0  0
  -13.5010  -23.9008   34.2940 C   0  0  0  0  0  0  0  0  0  0  0  0
  -12.3116  -24.6282   33.9397 C   0  0  0  0  0  0  0  0  0  0  0  0
  -11.9566  -24.5966   32.6598 C   0  0  0  0  0  0  0  0  0  0  0  0
  -10.9764  -25.2720   31.9359 N   0  0  0  0  0  0  0  0  0  0  0  0
   -9.7015  -25.4871   32.3433 C   0  0  0  0  0  0  0  0  0  0  0  0
   -8.9221  -25.7839   31.3292 N   0  0  0  0  0  0  0  0  0  0  0  0
   -9.7204  -25.8498   30.2171 C   0  0  0  0  0  0  0  0  0  0  0  0
   -9.4755  -26.1281   28.8546 C   0  0  0  0  0  0  0  0  0  0  0  0
  -10.4765  -26.0792   27.8802 C   0  0  0  0  0  0  0  0  0  0  0  0
  -11.7002  -25.5968   28.2155 C   0  0  0  0  0  0  0  0  0  0  0  0
  -11.8863  -25.1901   29.5267 C   0  0  0  0  0  0  0  0  0  0  0  0
  -10.9817  -25.4548   30.5541 C   0  0  0  0  0  0  0  0  0  0  0  0
  -12.5105  -23.6651   31.9705 N   0  0  0  0  0  0  0  0  0  0  0  0
  -10.5040  -23.6062   28.6747 H   0  0  0  0  0  0  0  0  0  0  0  0
  -11.6041  -21.6525   27.1511 H   0  0  0  0  0  0  0  0  0  0  0  0
  -12.4053  -22.9924   27.8802 H   0  0  0  0  0  0  0  0  0  0  0  0
  -12.9441  -20.6396   29.0133 H   0  0  0  0  0  0  0  0  0  0  0  0
  -11.3141  -20.5908   29.3332 H   0  0  0  0  0  0  0  0  0  0  0  0
  -12.8619  -22.7683   30.1776 H   0  0  0  0  0  0  0  0  0  0  0  0
  -10.6467  -23.0778   30.8808 H   0  0  0  0  0  0  0  0  0  0  0  0
  -10.2656  -21.4124   30.3903 H   0  0  0  0  0  0  0  0  0  0  0  0
   -9.9219  -20.8315   32.3287 H   0  0  0  0  0  0  0  0  0  0  0  0
  -10.4240  -22.4973   32.8726 H   0  0  0  0  0  0  0  0  0  0  0  0
  -11.7943  -19.9339   32.9088 H   0  0  0  0  0  0  0  0  0  0  0  0
  -12.1490  -21.2512   33.8791 H   0  0  0  0  0  0  0  0  0  0  0  0
  -14.7311  -22.1536   33.9393 H   0  0  0  0  0  0  0  0  0  0  0  0
  -14.1021  -24.1665   35.1480 H   0  0  0  0  0  0  0  0  0  0  0  0
  -11.8083  -25.3264   34.5847 H   0  0  0  0  0  0  0  0  0  0  0  0
   -9.3719  -25.3526   33.3617 H   0  0  0  0  0  0  0  0  0  0  0  0
   -8.5011  -26.4298   28.5098 H   0  0  0  0  0  0  0  0  0  0  0  0
  -10.2767  -26.3682   26.8577 H   0  0  0  0  0  0  0  0  0  0  0  0
  -12.4643  -25.4282   27.4627 H   0  0  0  0  0  0  0  0  0  0  0  0
  -12.7486  -24.6015   29.7477 H   0  0  0  0  0  0  0  0  0  0  0  0
  1  2  1  0
  2  3  1  0
  3  4  1  0
  4  5  1  0
  5  6  1  0
  6  7  1  0
  7  8  1  0
  8  9  1  0
  9 10  2  0
 10 11  1  0
 11 12  2  0
 12 13  1  0
 13 14  1  0
 14 15  1  0
 15 16  2  0
 16 17  1  0
 17 18  2  0
 18 19  1  0
 19 20  2  0
 20 21  1  0
 21 22  2  0
 13 23  2  0
  8  4  1  0
 23  9  1  0
 22 14  1  0
 22 17  1  0
  1 24  1  0
  2 25  1  0
  2 26  1  0
  3 27  1  0
  3 28  1  0
  4 29  1  0
  5 30  1  0
  5 31  1  0
  6 32  1  0
  6 33  1  0
  7 34  1  0
  7 35  1  0
 10 36  1  0
 11 37  1  0
 12 38  1  0
 15 39  1  0
 18 40  1  0
 19 41  1  0
 20 42  1  0
 21 43  1  0
M  END
>  <Energy>  (192) 
182.94662794305484

>  <compound_id>  (192) 
6214

>  <target_id>  (192) 
1

>  <reference_id>  (192) 
94

>  <inspiration_ids>  (192) 
[3, 94]

>  <energy_score>  (192) 
109.22734868986723

>  <distance_score>  (192) 
2.179654503430258

>  <path>  (192) 
/opt/xchem-fragalysis-2/maxwin/BulkDock/SCRATCH/511014/C6214-P94/C6214-P94.minimised.mol

>  <scratch_subdir>  (192) 
/opt/xchem-fragalysis-2/maxwin/BulkDock/SCRATCH/511014/C6214-P94

>  <fragmenstein_runtime>  (192) 
4.241922855377197

>  <fragmenstein_outcome>  (192) 
too moved

>  <fragmenstein_mode>  (192) 
expansion

>  <fragmenstein_error>  (192) 


$$$$
C12796-P3
     RDKit          3D

 55 57  0  0  0  0  0  0  0  0999 V2000
  -11.5299  -22.6627   26.7988 C   0  0  0  0  0  0  0  0  0  0  0  0
  -12.1927  -23.5976   27.8157 C   0  0  0  0  0  0  0  0  0  0  0  0
  -12.3905  -24.9832   27.1432 C   0  0  0  0  0  0  0  0  0  0  0  0
  -11.5966  -25.3636   26.3222 O   0  0  0  0  0  0  0  0  0  0  0  0
  -13.5932  -25.5969   27.6293 N   0  0  0  0  0  0  0  0  0  0  0  0
  -14.1817  -26.9494   27.3530 C   0  0  0  0  0  0  0  0  0  0  0  0
  -14.3976  -27.2102   25.8794 C   0  0  0  0  0  0  0  0  0  0  0  0
  -14.8473  -25.8618   25.4458 C   0  0  0  0  0  0  0  0  0  0  0  0
  -14.8023  -25.1475   26.7841 C   0  0  0  0  0  0  0  0  0  0  0  0
  -16.2066  -25.0559   27.4831 C   0  0  0  0  0  0  0  0  0  0  0  0
  -16.1806  -24.9544   28.9198 N   0  0  0  0  0  0  0  0  0  0  0  0
  -16.2360  -25.9452   29.9162 C   0  0  0  0  0  0  0  0  0  0  0  0
  -16.3972  -27.1206   29.8361 O   0  0  0  0  0  0  0  0  0  0  0  0
  -16.0823  -25.2933   31.0944 O   0  0  0  0  0  0  0  0  0  0  0  0
  -15.8585  -26.0339   32.3259 C   0  0  0  0  0  0  0  0  0  0  0  0
  -16.0881  -25.0125   33.4455 C   0  0  0  0  0  0  0  0  0  0  0  0
  -14.4154  -26.5555   32.3250 C   0  0  0  0  0  0  0  0  0  0  0  0
  -16.8415  -27.1792   32.5661 C   0  0  0  0  0  0  0  0  0  0  0  0
  -11.4908  -23.6704   29.1005 N   0  0  0  0  0  0  0  0  0  0  0  0
  -11.2355  -24.8267   29.7933 C   0  0  0  0  0  0  0  0  0  0  0  0
  -10.6136  -24.6015   30.9227 N   0  0  0  0  0  0  0  0  0  0  0  0
  -10.5232  -23.2412   31.0265 C   0  0  0  0  0  0  0  0  0  0  0  0
  -10.0353  -22.4765   32.0955 C   0  0  0  0  0  0  0  0  0  0  0  0
  -10.3133  -21.1095   32.1124 C   0  0  0  0  0  0  0  0  0  0  0  0
  -10.9550  -20.5035   31.0331 C   0  0  0  0  0  0  0  0  0  0  0  0
  -11.2963  -21.2319   29.8862 C   0  0  0  0  0  0  0  0  0  0  0  0
  -11.1214  -22.6209   29.9266 C   0  0  0  0  0  0  0  0  0  0  0  0
  -10.4859  -22.9306   26.6211 H   0  0  0  0  0  0  0  0  0  0  0  0
  -12.0496  -22.7091   25.8347 H   0  0  0  0  0  0  0  0  0  0  0  0
  -11.5560  -21.6197   27.1184 H   0  0  0  0  0  0  0  0  0  0  0  0
  -13.1796  -23.1957   28.0469 H   0  0  0  0  0  0  0  0  0  0  0  0
  -15.0505  -27.1896   27.9617 H   0  0  0  0  0  0  0  0  0  0  0  0
  -13.4158  -27.6565   27.7004 H   0  0  0  0  0  0  0  0  0  0  0  0
  -13.4685  -27.5055   25.3865 H   0  0  0  0  0  0  0  0  0  0  0  0
  -15.1412  -27.9937   25.7077 H   0  0  0  0  0  0  0  0  0  0  0  0
  -14.1355  -25.4245   24.7429 H   0  0  0  0  0  0  0  0  0  0  0  0
  -15.8376  -25.8621   24.9820 H   0  0  0  0  0  0  0  0  0  0  0  0
  -14.5882  -24.0954   26.5410 H   0  0  0  0  0  0  0  0  0  0  0  0
  -16.7530  -24.1882   27.0966 H   0  0  0  0  0  0  0  0  0  0  0  0
  -16.8053  -25.9416   27.2388 H   0  0  0  0  0  0  0  0  0  0  0  0
  -16.1123  -24.0464   29.3635 H   0  0  0  0  0  0  0  0  0  0  0  0
  -15.7946  -25.4030   34.4253 H   0  0  0  0  0  0  0  0  0  0  0  0
  -15.5458  -24.0881   33.2541 H   0  0  0  0  0  0  0  0  0  0  0  0
  -17.1455  -24.7250   33.4950 H   0  0  0  0  0  0  0  0  0  0  0  0
  -13.7118  -25.7799   32.0143 H   0  0  0  0  0  0  0  0  0  0  0  0
  -14.1237  -26.9423   33.3066 H   0  0  0  0  0  0  0  0  0  0  0  0
  -14.2955  -27.3679   31.5989 H   0  0  0  0  0  0  0  0  0  0  0  0
  -17.8670  -26.8735   32.3306 H   0  0  0  0  0  0  0  0  0  0  0  0
  -16.8122  -27.5162   33.6089 H   0  0  0  0  0  0  0  0  0  0  0  0
  -16.6187  -28.0607   31.9571 H   0  0  0  0  0  0  0  0  0  0  0  0
  -11.4922  -25.8141   29.4306 H   0  0  0  0  0  0  0  0  0  0  0  0
   -9.5565  -22.9634   32.9400 H   0  0  0  0  0  0  0  0  0  0  0  0
  -10.0364  -20.5174   32.9797 H   0  0  0  0  0  0  0  0  0  0  0  0
  -11.1606  -19.4335   31.0663 H   0  0  0  0  0  0  0  0  0  0  0  0
  -11.7531  -20.7152   29.0510 H   0  0  0  0  0  0  0  0  0  0  0  0
  1  2  1  0
  2  3  1  0
  3  4  2  0
  3  5  1  0
  5  6  1  0
  6  7  1  0
  7  8  1  0
  8  9  1  0
  9 10  1  0
 10 11  1  0
 11 12  1  0
 12 13  2  0
 12 14  1  0
 14 15  1  0
 15 16  1  0
 15 17  1  0
 15 18  1  0
  2 19  1  0
 19 20  1  0
 20 21  2  0
 21 22  1  0
 22 23  2  0
 23 24  1  0
 24 25  2  0
 25 26  1  0
 26 27  2  0
  9  5  1  0
 27 19  1  0
 27 22  1  0
  1 28  1  0
  1 29  1  0
  1 30  1  0
  2 31  1  0
  6 32  1  0
  6 33  1  0
  7 34  1  0
  7 35  1  0
  8 36  1  0
  8 37  1  0
  9 38  1  0
 10 39  1  0
 10 40  1  0
 11 41  1  0
 16 42  1  0
 16 43  1  0
 16 44  1  0
 17 45  1  0
 17 46  1  0
 17 47  1  0
 18 48  1  0
 18 49  1  0
 18 50  1  0
 20 51  1  0
 23 52  1  0
 24 53  1  0
 25 54  1  0
 26 55  1  0
M  END
>  <Energy>  (193) 
63.544145497911828

>  <compound_id>  (193) 
12796

>  <target_id>  (193) 
1

>  <reference_id>  (193) 
3

>  <inspiration_ids>  (193) 
[3, 94]

>  <energy_score>  (193) 
29.086531923186953

>  <distance_score>  (193) 
4.266874631035747

>  <path>  (193) 
/opt/xchem-fragalysis-2/maxwin/BulkDock/SCRATCH/511014/C12796-P3/C12796-P3.minimised.mol

>  <scratch_subdir>  (193) 
/opt/xchem-fragalysis-2/maxwin/BulkDock/SCRATCH/511014/C12796-P3

>  <fragmenstein_runtime>  (193) 
26.6985342502594

>  <fragmenstein_outcome>  (193) 
too moved

>  <fragmenstein_mode>  (193) 
expansion

>  <fragmenstein_error>  (193) 


$$$$
C12796-P94
     RDKit          3D

 55 57  0  0  0  0  0  0  0  0999 V2000
   -9.4892  -25.5555   28.8244 C   0  0  0  0  0  0  0  0  0  0  0  0
  -10.9418  -25.7252   29.2621 C   0  0  0  0  0  0  0  0  0  0  0  0
  -11.5965  -26.2895   28.0507 C   0  0  0  0  0  0  0  0  0  0  0  0
  -11.0970  -27.2079   27.4832 O   0  0  0  0  0  0  0  0  0  0  0  0
  -12.7050  -25.5323   27.7285 N   0  0  0  0  0  0  0  0  0  0  0  0
  -13.6933  -25.6859   26.6381 C   0  0  0  0  0  0  0  0  0  0  0  0
  -13.3176  -25.3592   25.2473 C   0  0  0  0  0  0  0  0  0  0  0  0
  -12.9956  -23.9606   25.5711 C   0  0  0  0  0  0  0  0  0  0  0  0
  -12.2661  -24.2681   26.8568 C   0  0  0  0  0  0  0  0  0  0  0  0
  -11.6449  -22.9229   27.6705 C   0  0  0  0  0  0  0  0  0  0  0  0
  -12.0452  -22.2394   28.9418 N   0  0  0  0  0  0  0  0  0  0  0  0
  -12.4650  -22.7656   30.1857 C   0  0  0  0  0  0  0  0  0  0  0  0
  -12.6803  -23.8687   30.5102 O   0  0  0  0  0  0  0  0  0  0  0  0
  -12.5989  -21.7985   31.1738 O   0  0  0  0  0  0  0  0  0  0  0  0
  -13.3590  -21.7813   32.5227 C   0  0  0  0  0  0  0  0  0  0  0  0
  -14.7993  -21.2672   32.2111 C   0  0  0  0  0  0  0  0  0  0  0  0
  -12.5128  -20.8324   33.4261 C   0  0  0  0  0  0  0  0  0  0  0  0
  -13.6202  -22.8931   33.5502 C   0  0  0  0  0  0  0  0  0  0  0  0
  -11.2715  -26.3350   30.5462 N   0  0  0  0  0  0  0  0  0  0  0  0
  -10.7587  -27.5247   30.9031 C   0  0  0  0  0  0  0  0  0  0  0  0
   -9.4833  -27.2922   31.0986 N   0  0  0  0  0  0  0  0  0  0  0  0
   -9.5383  -26.0707   31.7098 C   0  0  0  0  0  0  0  0  0  0  0  0
   -8.6233  -25.2715   32.3518 C   0  0  0  0  0  0  0  0  0  0  0  0
   -9.1042  -24.0896   32.8699 C   0  0  0  0  0  0  0  0  0  0  0  0
  -10.4591  -23.8306   32.9262 C   0  0  0  0  0  0  0  0  0  0  0  0
  -11.3788  -24.7344   32.4887 C   0  0  0  0  0  0  0  0  0  0  0  0
  -10.8433  -25.6667   31.6718 C   0  0  0  0  0  0  0  0  0  0  0  0
   -8.9917  -26.4992   28.6232 H   0  0  0  0  0  0  0  0  0  0  0  0
   -9.4730  -24.9921   27.8912 H   0  0  0  0  0  0  0  0  0  0  0  0
   -8.9041  -24.9915   29.5378 H   0  0  0  0  0  0  0  0  0  0  0  0
  -11.2384  -24.7023   29.3595 H   0  0  0  0  0  0  0  0  0  0  0  0
  -14.6814  -25.3462   26.8723 H   0  0  0  0  0  0  0  0  0  0  0  0
  -13.8757  -26.7677   26.6495 H   0  0  0  0  0  0  0  0  0  0  0  0
  -12.4599  -25.9668   24.9387 H   0  0  0  0  0  0  0  0  0  0  0  0
  -14.1463  -25.4772   24.5442 H   0  0  0  0  0  0  0  0  0  0  0  0
  -13.9239  -23.4189   25.6927 H   0  0  0  0  0  0  0  0  0  0  0  0
  -12.3725  -23.4365   24.8435 H   0  0  0  0  0  0  0  0  0  0  0  0
  -11.2987  -24.6267   26.4477 H   0  0  0  0  0  0  0  0  0  0  0  0
  -11.5604  -22.1249   26.9362 H   0  0  0  0  0  0  0  0  0  0  0  0
  -10.6075  -23.1887   27.8891 H   0  0  0  0  0  0  0  0  0  0  0  0
  -11.8775  -21.2470   29.0439 H   0  0  0  0  0  0  0  0  0  0  0  0
  -15.5773  -21.9472   32.5809 H   0  0  0  0  0  0  0  0  0  0  0  0
  -15.0127  -20.3078   32.6906 H   0  0  0  0  0  0  0  0  0  0  0  0
  -14.9936  -21.1862   31.1403 H   0  0  0  0  0  0  0  0  0  0  0  0
  -11.6991  -20.3469   32.8839 H   0  0  0  0  0  0  0  0  0  0  0  0
  -13.1336  -20.1003   33.9553 H   0  0  0  0  0  0  0  0  0  0  0  0
  -12.0045  -21.3587   34.2360 H   0  0  0  0  0  0  0  0  0  0  0  0
  -12.7497  -23.2979   34.0581 H   0  0  0  0  0  0  0  0  0  0  0  0
  -14.2326  -22.4781   34.3640 H   0  0  0  0  0  0  0  0  0  0  0  0
  -14.2245  -23.7018   33.2105 H   0  0  0  0  0  0  0  0  0  0  0  0
  -11.3368  -28.4105   31.1076 H   0  0  0  0  0  0  0  0  0  0  0  0
   -7.5946  -25.5567   32.4146 H   0  0  0  0  0  0  0  0  0  0  0  0
   -8.4167  -23.3464   33.2513 H   0  0  0  0  0  0  0  0  0  0  0  0
  -10.8249  -22.9053   33.3248 H   0  0  0  0  0  0  0  0  0  0  0  0
  -12.4318  -24.5959   32.5326 H   0  0  0  0  0  0  0  0  0  0  0  0
  1  2  1  0
  2  3  1  0
  3  4  2  0
  3  5  1  0
  5  6  1  0
  6  7  1  0
  7  8  1  0
  8  9  1  0
  9 10  1  0
 10 11  1  0
 11 12  1  0
 12 13  2  0
 12 14  1  0
 14 15  1  0
 15 16  1  0
 15 17  1  0
 15 18  1  0
  2 19  1  0
 19 20  1  0
 20 21  2  0
 21 22  1  0
 22 23  2  0
 23 24  1  0
 24 25  2  0
 25 26  1  0
 26 27  2  0
  9  5  1  0
 27 19  1  0
 27 22  1  0
  1 28  1  0
  1 29  1  0
  1 30  1  0
  2 31  1  0
  6 32  1  0
  6 33  1  0
  7 34  1  0
  7 35  1  0
  8 36  1  0
  8 37  1  0
  9 38  1  0
 10 39  1  0
 10 40  1  0
 11 41  1  0
 16 42  1  0
 16 43  1  0
 16 44  1  0
 17 45  1  0
 17 46  1  0
 17 47  1  0
 18 48  1  0
 18 49  1  0
 18 50  1  0
 20 51  1  0
 23 52  1  0
 24 53  1  0
 25 54  1  0
 26 55  1  0
M  END
>  <Energy>  (194) 
231.10259451897704

>  <compound_id>  (194) 
12796

>  <target_id>  (194) 
1

>  <reference_id>  (194) 
94

>  <inspiration_ids>  (194) 
[3, 94]

>  <energy_score>  (194) 
196.64498094425167

>  <distance_score>  (194) 
3.68258253367018

>  <path>  (194) 
/opt/xchem-fragalysis-2/maxwin/BulkDock/SCRATCH/511014/C12796-P94/C12796-P94.minimised.mol

>  <scratch_subdir>  (194) 
/opt/xchem-fragalysis-2/maxwin/BulkDock/SCRATCH/511014/C12796-P94

>  <fragmenstein_runtime>  (194) 
29.395386934280396

>  <fragmenstein_outcome>  (194) 
too moved

>  <fragmenstein_mode>  (194) 
expansion

>  <fragmenstein_error>  (194) 


$$$$
C12797-P3
     RDKit          3D

 54 58  0  0  0  0  0  0  0  0999 V2000
  -11.2242  -25.3702   27.9403 O   0  0  0  0  0  0  0  0  0  0  0  0
  -11.5069  -24.5589   28.7291 C   0  0  0  0  0  0  0  0  0  0  0  0
  -11.5554  -24.6370   30.2796 N   0  0  0  0  0  0  0  0  0  0  0  0
  -11.1824  -25.6770   31.1552 C   0  0  0  0  0  0  0  0  0  0  0  0
  -11.9828  -26.1503   32.3687 C   0  0  0  0  0  0  0  0  0  0  0  0
  -13.4979  -26.1860   32.3242 C   0  0  0  0  0  0  0  0  0  0  0  0
  -13.8416  -26.9957   31.1913 N   0  0  0  0  0  0  0  0  0  0  0  0
  -13.3447  -28.2601   31.0678 C   0  0  0  0  0  0  0  0  0  0  0  0
  -12.9345  -28.4615   29.8445 N   0  0  0  0  0  0  0  0  0  0  0  0
  -13.4189  -27.3935   29.1292 C   0  0  0  0  0  0  0  0  0  0  0  0
  -13.3700  -27.1468   27.7602 C   0  0  0  0  0  0  0  0  0  0  0  0
  -13.9910  -25.9949   27.2636 C   0  0  0  0  0  0  0  0  0  0  0  0
  -14.6445  -25.1002   28.1151 C   0  0  0  0  0  0  0  0  0  0  0  0
  -14.6733  -25.3047   29.4935 C   0  0  0  0  0  0  0  0  0  0  0  0
  -14.0612  -26.4743   29.9499 C   0  0  0  0  0  0  0  0  0  0  0  0
  -12.0027  -23.1717   28.3816 C   0  0  0  0  0  0  0  0  0  0  0  0
  -12.2663  -22.9630   26.8823 C   0  0  0  0  0  0  0  0  0  0  0  0
  -12.0716  -21.4824   26.7375 C   0  0  0  0  0  0  0  0  0  0  0  0
  -10.8551  -21.3017   27.6128 C   0  0  0  0  0  0  0  0  0  0  0  0
  -11.0506  -22.1122   28.7974 N   0  0  0  0  0  0  0  0  0  0  0  0
  -11.1190  -21.4082   29.9666 C   0  0  0  0  0  0  0  0  0  0  0  0
  -11.7850  -20.2563   30.1109 N   0  0  0  0  0  0  0  0  0  0  0  0
  -11.4778  -19.8346   31.5809 S   0  0  0  0  0  0  0  0  0  0  0  0
  -12.4865  -18.9431   32.4339 O   0  0  0  0  0  0  0  0  0  0  0  0
  -10.3766  -18.6686   31.2990 O   0  0  0  0  0  0  0  0  0  0  0  0
  -10.6001  -20.9822   32.2610 C   0  0  0  0  0  0  0  0  0  0  0  0
  -10.1713  -21.2487   33.5403 C   0  0  0  0  0  0  0  0  0  0  0  0
   -9.1482  -22.1724   33.6453 C   0  0  0  0  0  0  0  0  0  0  0  0
   -8.6985  -22.9046   32.5503 C   0  0  0  0  0  0  0  0  0  0  0  0
   -9.3019  -22.7732   31.3120 C   0  0  0  0  0  0  0  0  0  0  0  0
  -10.2947  -21.7954   31.1472 C   0  0  0  0  0  0  0  0  0  0  0  0
  -11.7612  -23.7292   30.6550 H   0  0  0  0  0  0  0  0  0  0  0  0
  -11.0244  -26.5266   30.4877 H   0  0  0  0  0  0  0  0  0  0  0  0
  -10.2242  -25.3248   31.5351 H   0  0  0  0  0  0  0  0  0  0  0  0
  -11.6603  -27.1915   32.5325 H   0  0  0  0  0  0  0  0  0  0  0  0
  -11.5449  -25.7616   33.2677 H   0  0  0  0  0  0  0  0  0  0  0  0
  -14.0279  -25.2484   32.2023 H   0  0  0  0  0  0  0  0  0  0  0  0
  -13.9050  -26.6953   33.2066 H   0  0  0  0  0  0  0  0  0  0  0  0
  -13.1881  -28.9283   31.9046 H   0  0  0  0  0  0  0  0  0  0  0  0
  -12.8825  -27.8457   27.0932 H   0  0  0  0  0  0  0  0  0  0  0  0
  -13.9700  -25.8139   26.1909 H   0  0  0  0  0  0  0  0  0  0  0  0
  -15.1546  -24.2369   27.6928 H   0  0  0  0  0  0  0  0  0  0  0  0
  -15.2045  -24.6314   30.1557 H   0  0  0  0  0  0  0  0  0  0  0  0
  -12.9429  -23.0909   28.8852 H   0  0  0  0  0  0  0  0  0  0  0  0
  -11.5465  -23.5102   26.2616 H   0  0  0  0  0  0  0  0  0  0  0  0
  -13.2685  -23.2610   26.5704 H   0  0  0  0  0  0  0  0  0  0  0  0
  -11.9277  -21.1852   25.6969 H   0  0  0  0  0  0  0  0  0  0  0  0
  -12.9227  -20.9267   27.1337 H   0  0  0  0  0  0  0  0  0  0  0  0
  -10.6471  -20.2471   27.8137 H   0  0  0  0  0  0  0  0  0  0  0  0
  -10.0049  -21.7854   27.1401 H   0  0  0  0  0  0  0  0  0  0  0  0
  -10.5689  -20.6960   34.3823 H   0  0  0  0  0  0  0  0  0  0  0  0
   -8.6811  -22.3068   34.6079 H   0  0  0  0  0  0  0  0  0  0  0  0
   -7.8852  -23.6186   32.6549 H   0  0  0  0  0  0  0  0  0  0  0  0
   -8.9803  -23.3992   30.4879 H   0  0  0  0  0  0  0  0  0  0  0  0
  1  2  2  0
  2  3  1  0
  3  4  1  0
  4  5  1  0
  5  6  1  0
  6  7  1  0
  7  8  1  0
  8  9  2  0
  9 10  1  0
 10 11  2  0
 11 12  1  0
 12 13  2  0
 13 14  1  0
 14 15  2  0
  2 16  1  0
 16 17  1  0
 17 18  1  0
 18 19  1  0
 19 20  1  0
 20 21  1  0
 21 22  2  0
 22 23  1  0
 23 24  2  0
 23 25  2  0
 23 26  1  0
 26 27  2  0
 27 28  1  0
 28 29  2  0
 29 30  1  0
 30 31  2  0
 15  7  1  0
 20 16  1  0
 31 21  1  0
 15 10  1  0
 31 26  1  0
  3 32  1  0
  4 33  1  0
  4 34  1  0
  5 35  1  0
  5 36  1  0
  6 37  1  0
  6 38  1  0
  8 39  1  0
 11 40  1  0
 12 41  1  0
 13 42  1  0
 14 43  1  0
 16 44  1  0
 17 45  1  0
 17 46  1  0
 18 47  1  0
 18 48  1  0
 19 49  1  0
 19 50  1  0
 27 51  1  0
 28 52  1  0
 29 53  1  0
 30 54  1  0
M  END
>  <Energy>  (195) 
211.16775257842255

>  <compound_id>  (195) 
12797

>  <target_id>  (195) 
1

>  <reference_id>  (195) 
3

>  <inspiration_ids>  (195) 
[3, 94]

>  <energy_score>  (195) 
-0.2118200009508655

>  <distance_score>  (195) 
3.0180435286818468

>  <path>  (195) 
/opt/xchem-fragalysis-2/maxwin/BulkDock/SCRATCH/511014/C12797-P3/C12797-P3.minimised.mol

>  <scratch_subdir>  (195) 
/opt/xchem-fragalysis-2/maxwin/BulkDock/SCRATCH/511014/C12797-P3

>  <fragmenstein_runtime>  (195) 
8.510777473449707

>  <fragmenstein_outcome>  (195) 
too moved

>  <fragmenstein_mode>  (195) 
expansion

>  <fragmenstein_error>  (195) 


$$$$
C12797-P94
     RDKit          3D

 54 58  0  0  0  0  0  0  0  0999 V2000
  -13.3802  -20.9675   32.2713 O   0  0  0  0  0  0  0  0  0  0  0  0
  -14.0153  -21.7573   31.7063 C   0  0  0  0  0  0  0  0  0  0  0  0
  -15.1181  -22.4660   32.1153 N   0  0  0  0  0  0  0  0  0  0  0  0
  -15.7575  -22.5392   33.3630 C   0  0  0  0  0  0  0  0  0  0  0  0
  -14.7108  -23.4385   34.2295 C   0  0  0  0  0  0  0  0  0  0  0  0
  -13.1560  -23.7666   33.7240 C   0  0  0  0  0  0  0  0  0  0  0  0
  -12.3191  -24.9929   33.5253 N   0  0  0  0  0  0  0  0  0  0  0  0
  -11.3541  -25.4879   34.4220 C   0  0  0  0  0  0  0  0  0  0  0  0
  -10.6821  -26.5354   34.0096 N   0  0  0  0  0  0  0  0  0  0  0  0
  -10.9983  -26.6513   32.6756 C   0  0  0  0  0  0  0  0  0  0  0  0
  -10.5849  -27.5410   31.6657 C   0  0  0  0  0  0  0  0  0  0  0  0
  -10.6453  -27.1444   30.3454 C   0  0  0  0  0  0  0  0  0  0  0  0
  -11.4783  -26.1937   29.9444 C   0  0  0  0  0  0  0  0  0  0  0  0
  -12.0044  -25.4551   30.9798 C   0  0  0  0  0  0  0  0  0  0  0  0
  -11.8540  -25.6245   32.3425 C   0  0  0  0  0  0  0  0  0  0  0  0
  -13.2552  -22.1393   30.0789 C   0  0  0  0  0  0  0  0  0  0  0  0
  -12.5497  -21.4034   28.8876 C   0  0  0  0  0  0  0  0  0  0  0  0
  -11.3309  -22.0299   28.2084 C   0  0  0  0  0  0  0  0  0  0  0  0
  -11.5848  -23.3952   28.6970 C   0  0  0  0  0  0  0  0  0  0  0  0
  -12.1635  -23.0672   30.0286 N   0  0  0  0  0  0  0  0  0  0  0  0
  -11.2724  -22.4687   30.7705 C   0  0  0  0  0  0  0  0  0  0  0  0
  -11.2765  -21.1418   30.9857 N   0  0  0  0  0  0  0  0  0  0  0  0
  -10.9112  -21.1416   32.4576 S   0  0  0  0  0  0  0  0  0  0  0  0
  -11.8298  -20.8471   33.7503 O   0  0  0  0  0  0  0  0  0  0  0  0
   -9.8225  -20.0022   32.6838 O   0  0  0  0  0  0  0  0  0  0  0  0
  -10.2982  -22.6079   32.5390 C   0  0  0  0  0  0  0  0  0  0  0  0
  -10.1348  -23.5700   33.3674 C   0  0  0  0  0  0  0  0  0  0  0  0
   -8.8955  -24.1316   33.2439 C   0  0  0  0  0  0  0  0  0  0  0  0
   -8.7450  -24.9015   32.1599 C   0  0  0  0  0  0  0  0  0  0  0  0
   -9.5805  -24.5106   31.1609 C   0  0  0  0  0  0  0  0  0  0  0  0
  -10.3979  -23.3092   31.3941 C   0  0  0  0  0  0  0  0  0  0  0  0
  -15.3632  -23.1219   31.4028 H   0  0  0  0  0  0  0  0  0  0  0  0
  -16.7200  -23.0470   33.2733 H   0  0  0  0  0  0  0  0  0  0  0  0
  -15.8611  -21.5428   33.8014 H   0  0  0  0  0  0  0  0  0  0  0  0
  -14.5721  -22.7515   35.0521 H   0  0  0  0  0  0  0  0  0  0  0  0
  -15.2026  -24.2742   34.7338 H   0  0  0  0  0  0  0  0  0  0  0  0
  -12.5999  -23.2037   34.4666 H   0  0  0  0  0  0  0  0  0  0  0  0
  -12.9729  -23.2767   32.7945 H   0  0  0  0  0  0  0  0  0  0  0  0
  -11.0927  -24.9863   35.3232 H   0  0  0  0  0  0  0  0  0  0  0  0
  -10.0183  -28.4273   31.8911 H   0  0  0  0  0  0  0  0  0  0  0  0
   -9.9141  -27.4403   29.6316 H   0  0  0  0  0  0  0  0  0  0  0  0
  -11.6254  -25.9612   28.9028 H   0  0  0  0  0  0  0  0  0  0  0  0
  -12.6762  -24.7036   30.6967 H   0  0  0  0  0  0  0  0  0  0  0  0
  -14.1069  -22.6397   29.7868 H   0  0  0  0  0  0  0  0  0  0  0  0
  -13.0969  -21.8918   28.1193 H   0  0  0  0  0  0  0  0  0  0  0  0
  -12.5417  -20.3394   28.9648 H   0  0  0  0  0  0  0  0  0  0  0  0
  -11.3486  -21.9836   27.1204 H   0  0  0  0  0  0  0  0  0  0  0  0
  -10.3865  -21.6432   28.5656 H   0  0  0  0  0  0  0  0  0  0  0  0
  -10.6500  -23.9585   28.7038 H   0  0  0  0  0  0  0  0  0  0  0  0
  -12.2631  -23.9556   28.0530 H   0  0  0  0  0  0  0  0  0  0  0  0
  -10.8055  -23.4023   34.1749 H   0  0  0  0  0  0  0  0  0  0  0  0
   -8.1173  -23.3499   33.3122 H   0  0  0  0  0  0  0  0  0  0  0  0
   -7.9792  -25.6457   32.0654 H   0  0  0  0  0  0  0  0  0  0  0  0
   -9.4674  -24.9471   30.1776 H   0  0  0  0  0  0  0  0  0  0  0  0
  1  2  2  0
  2  3  1  0
  3  4  1  0
  4  5  1  0
  5  6  1  0
  6  7  1  0
  7  8  1  0
  8  9  2  0
  9 10  1  0
 10 11  2  0
 11 12  1  0
 12 13  2  0
 13 14  1  0
 14 15  2  0
  2 16  1  0
 16 17  1  0
 17 18  1  0
 18 19  1  0
 19 20  1  0
 20 21  1  0
 21 22  2  0
 22 23  1  0
 23 24  2  0
 23 25  2  0
 23 26  1  0
 26 27  2  0
 27 28  1  0
 28 29  2  0
 29 30  1  0
 30 31  2  0
 15  7  1  0
 20 16  1  0
 31 21  1  0
 15 10  1  0
 31 26  1  0
  3 32  1  0
  4 33  1  0
  4 34  1  0
  5 35  1  0
  5 36  1  0
  6 37  1  0
  6 38  1  0
  8 39  1  0
 11 40  1  0
 12 41  1  0
 13 42  1  0
 14 43  1  0
 16 44  1  0
 17 45  1  0
 17 46  1  0
 18 47  1  0
 18 48  1  0
 19 49  1  0
 19 50  1  0
 27 51  1  0
 28 52  1  0
 29 53  1  0
 30 54  1  0
M  END
>  <Energy>  (196) 
660.93514306754832

>  <compound_id>  (196) 
12797

>  <target_id>  (196) 
1

>  <reference_id>  (196) 
94

>  <inspiration_ids>  (196) 
[3, 94]

>  <energy_score>  (196) 
428.86991501478735

>  <distance_score>  (196) 
2.0765547283296444

>  <path>  (196) 
/opt/xchem-fragalysis-2/maxwin/BulkDock/SCRATCH/511014/C12797-P94/C12797-P94.minimised.mol

>  <scratch_subdir>  (196) 
/opt/xchem-fragalysis-2/maxwin/BulkDock/SCRATCH/511014/C12797-P94

>  <fragmenstein_runtime>  (196) 
10.307981729507446

>  <fragmenstein_outcome>  (196) 
too moved

>  <fragmenstein_mode>  (196) 
expansion

>  <fragmenstein_error>  (196) 


$$$$
C12801-P3
     RDKit          3D

 36 38  0  0  0  0  0  0  0  0999 V2000
  -12.2121  -22.0151   29.4022 O   0  0  0  0  0  0  0  0  0  0  0  0
  -11.3047  -22.6894   29.1056 C   0  0  0  0  0  0  0  0  0  0  0  0
   -9.9568  -22.4826   29.7336 C   0  0  0  0  0  0  0  0  0  0  0  0
   -9.9462  -22.2865   31.1604 N   0  0  0  0  0  0  0  0  0  0  0  0
   -9.3184  -23.1182   32.0452 C   0  0  0  0  0  0  0  0  0  0  0  0
   -9.5410  -22.7453   33.2787 N   0  0  0  0  0  0  0  0  0  0  0  0
  -10.2824  -21.6095   33.1697 C   0  0  0  0  0  0  0  0  0  0  0  0
  -10.8738  -20.8493   34.1643 C   0  0  0  0  0  0  0  0  0  0  0  0
  -11.5615  -19.6965   33.8114 C   0  0  0  0  0  0  0  0  0  0  0  0
  -11.6453  -19.2943   32.4940 C   0  0  0  0  0  0  0  0  0  0  0  0
  -11.1217  -20.0704   31.4719 C   0  0  0  0  0  0  0  0  0  0  0  0
  -10.4750  -21.2423   31.8502 C   0  0  0  0  0  0  0  0  0  0  0  0
  -11.2375  -23.8888   28.1919 N   0  0  0  0  0  0  0  0  0  0  0  0
  -12.3016  -24.5194   27.3037 C   0  0  0  0  0  0  0  0  0  0  0  0
  -13.4695  -25.1992   28.0129 C   0  0  0  0  0  0  0  0  0  0  0  0
  -12.8991  -25.2397   29.3880 C   0  0  0  0  0  0  0  0  0  0  0  0
  -13.0855  -26.3773   30.1832 O   0  0  0  0  0  0  0  0  0  0  0  0
  -12.8652  -26.1227   31.5655 C   0  0  0  0  0  0  0  0  0  0  0  0
  -13.7459  -25.1975   31.9731 F   0  0  0  0  0  0  0  0  0  0  0  0
  -11.6226  -25.6609   31.7935 F   0  0  0  0  0  0  0  0  0  0  0  0
  -13.0539  -27.2561   32.2606 F   0  0  0  0  0  0  0  0  0  0  0  0
  -11.4769  -25.1479   28.9396 C   0  0  0  0  0  0  0  0  0  0  0  0
   -9.4916  -21.6365   29.2356 H   0  0  0  0  0  0  0  0  0  0  0  0
   -9.3697  -23.3763   29.6365 H   0  0  0  0  0  0  0  0  0  0  0  0
   -8.7337  -23.9853   31.7615 H   0  0  0  0  0  0  0  0  0  0  0  0
  -10.7992  -21.1730   35.1872 H   0  0  0  0  0  0  0  0  0  0  0  0
  -12.0286  -19.0946   34.5678 H   0  0  0  0  0  0  0  0  0  0  0  0
  -12.1764  -18.3849   32.2768 H   0  0  0  0  0  0  0  0  0  0  0  0
  -11.2602  -19.7793   30.4363 H   0  0  0  0  0  0  0  0  0  0  0  0
  -11.8087  -25.1886   26.5799 H   0  0  0  0  0  0  0  0  0  0  0  0
  -12.6980  -23.6888   26.7045 H   0  0  0  0  0  0  0  0  0  0  0  0
  -13.6866  -26.1875   27.5951 H   0  0  0  0  0  0  0  0  0  0  0  0
  -14.3845  -24.5995   27.9678 H   0  0  0  0  0  0  0  0  0  0  0  0
  -13.2557  -24.3522   29.8872 H   0  0  0  0  0  0  0  0  0  0  0  0
  -11.0984  -26.0476   28.4188 H   0  0  0  0  0  0  0  0  0  0  0  0
  -10.8418  -25.0998   29.8307 H   0  0  0  0  0  0  0  0  0  0  0  0
  1  2  2  0
  2  3  1  0
  3  4  1  0
  4  5  1  0
  5  6  2  0
  6  7  1  0
  7  8  2  0
  8  9  1  0
  9 10  2  0
 10 11  1  0
 11 12  2  0
  2 13  1  0
 13 14  1  0
 14 15  1  0
 15 16  1  0
 16 17  1  0
 17 18  1  0
 18 19  1  0
 18 20  1  0
 18 21  1  0
 16 22  1  0
 12  4  1  0
 22 13  1  0
 12  7  1  0
  3 23  1  0
  3 24  1  0
  5 25  1  0
  8 26  1  0
  9 27  1  0
 10 28  1  0
 11 29  1  0
 14 30  1  0
 14 31  1  0
 15 32  1  0
 15 33  1  0
 16 34  1  0
 22 35  1  0
 22 36  1  0
M  END
>  <Energy>  (197) 
93.191593777028558

>  <compound_id>  (197) 
12801

>  <target_id>  (197) 
1

>  <reference_id>  (197) 
3

>  <inspiration_ids>  (197) 
[3, 94]

>  <energy_score>  (197) 
54.727743666679544

>  <distance_score>  (197) 
2.4174535051439285

>  <path>  (197) 
/opt/xchem-fragalysis-2/maxwin/BulkDock/SCRATCH/511014/C12801-P3/C12801-P3.minimised.mol

>  <scratch_subdir>  (197) 
/opt/xchem-fragalysis-2/maxwin/BulkDock/SCRATCH/511014/C12801-P3

>  <fragmenstein_runtime>  (197) 
21.613183736801147

>  <fragmenstein_outcome>  (197) 
too moved

>  <fragmenstein_mode>  (197) 
expansion

>  <fragmenstein_error>  (197) 


$$$$
C12801-P94
     RDKit          3D

 36 38  0  0  0  0  0  0  0  0999 V2000
  -11.0433  -27.1434   26.2696 O   0  0  0  0  0  0  0  0  0  0  0  0
  -11.6465  -26.6539   27.1834 C   0  0  0  0  0  0  0  0  0  0  0  0
  -11.6826  -27.2531   28.5742 C   0  0  0  0  0  0  0  0  0  0  0  0
  -10.6328  -26.6615   29.3998 N   0  0  0  0  0  0  0  0  0  0  0  0
   -9.4785  -26.1917   28.8214 C   0  0  0  0  0  0  0  0  0  0  0  0
   -8.8801  -25.2967   29.5472 N   0  0  0  0  0  0  0  0  0  0  0  0
   -9.4275  -25.4614   30.7734 C   0  0  0  0  0  0  0  0  0  0  0  0
   -8.9284  -25.0823   32.0134 C   0  0  0  0  0  0  0  0  0  0  0  0
   -9.7405  -25.1279   33.1051 C   0  0  0  0  0  0  0  0  0  0  0  0
  -11.0336  -25.5190   32.9595 C   0  0  0  0  0  0  0  0  0  0  0  0
  -11.4090  -26.2258   31.8113 C   0  0  0  0  0  0  0  0  0  0  0  0
  -10.6106  -26.1758   30.6866 C   0  0  0  0  0  0  0  0  0  0  0  0
  -12.3472  -25.4473   27.2696 N   0  0  0  0  0  0  0  0  0  0  0  0
  -12.6663  -24.4371   26.2352 C   0  0  0  0  0  0  0  0  0  0  0  0
  -11.7992  -23.2477   26.0915 C   0  0  0  0  0  0  0  0  0  0  0  0
  -11.5459  -22.9194   27.5333 C   0  0  0  0  0  0  0  0  0  0  0  0
  -12.4558  -22.3480   28.4406 O   0  0  0  0  0  0  0  0  0  0  0  0
  -12.0303  -22.2575   29.8050 C   0  0  0  0  0  0  0  0  0  0  0  0
  -13.0951  -21.9463   30.5717 F   0  0  0  0  0  0  0  0  0  0  0  0
  -11.1143  -21.2825   29.9406 F   0  0  0  0  0  0  0  0  0  0  0  0
  -11.5137  -23.3865   30.2952 F   0  0  0  0  0  0  0  0  0  0  0  0
  -11.4402  -24.3706   27.7467 C   0  0  0  0  0  0  0  0  0  0  0  0
  -11.6210  -28.3218   28.4527 H   0  0  0  0  0  0  0  0  0  0  0  0
  -12.6377  -27.1021   29.0243 H   0  0  0  0  0  0  0  0  0  0  0  0
   -9.1697  -26.4605   27.8248 H   0  0  0  0  0  0  0  0  0  0  0  0
   -7.9065  -24.8047   32.1742 H   0  0  0  0  0  0  0  0  0  0  0  0
   -9.3070  -24.9648   34.0688 H   0  0  0  0  0  0  0  0  0  0  0  0
  -11.6803  -25.3780   33.8159 H   0  0  0  0  0  0  0  0  0  0  0  0
  -12.2827  -26.8304   31.8282 H   0  0  0  0  0  0  0  0  0  0  0  0
  -13.7188  -24.1713   26.3053 H   0  0  0  0  0  0  0  0  0  0  0  0
  -12.6301  -25.0067   25.3009 H   0  0  0  0  0  0  0  0  0  0  0  0
  -10.9088  -23.6603   25.5951 H   0  0  0  0  0  0  0  0  0  0  0  0
  -12.1801  -22.5222   25.3862 H   0  0  0  0  0  0  0  0  0  0  0  0
  -10.6012  -22.4260   27.7182 H   0  0  0  0  0  0  0  0  0  0  0  0
  -11.4664  -24.5487   28.8043 H   0  0  0  0  0  0  0  0  0  0  0  0
  -10.4266  -24.6310   27.4042 H   0  0  0  0  0  0  0  0  0  0  0  0
  1  2  2  0
  2  3  1  0
  3  4  1  0
  4  5  1  0
  5  6  2  0
  6  7  1  0
  7  8  2  0
  8  9  1  0
  9 10  2  0
 10 11  1  0
 11 12  2  0
  2 13  1  0
 13 14  1  0
 14 15  1  0
 15 16  1  0
 16 17  1  0
 17 18  1  0
 18 19  1  0
 18 20  1  0
 18 21  1  0
 16 22  1  0
 12  4  1  0
 22 13  1  0
 12  7  1  0
  3 23  1  0
  3 24  1  0
  5 25  1  0
  8 26  1  0
  9 27  1  0
 10 28  1  0
 11 29  1  0
 14 30  1  0
 14 31  1  0
 15 32  1  0
 15 33  1  0
 16 34  1  0
 22 35  1  0
 22 36  1  0
M  END
>  <Energy>  (198) 
133.62641111717554

>  <compound_id>  (198) 
12801

>  <target_id>  (198) 
1

>  <reference_id>  (198) 
94

>  <inspiration_ids>  (198) 
[3, 94]

>  <energy_score>  (198) 
88.5234666305512

>  <distance_score>  (198) 
4.026005179509854

>  <path>  (198) 
/opt/xchem-fragalysis-2/maxwin/BulkDock/SCRATCH/511014/C12801-P94/C12801-P94.minimised.mol

>  <scratch_subdir>  (198) 
/opt/xchem-fragalysis-2/maxwin/BulkDock/SCRATCH/511014/C12801-P94

>  <fragmenstein_runtime>  (198) 
24.037833213806152

>  <fragmenstein_outcome>  (198) 
too moved

>  <fragmenstein_mode>  (198) 
expansion

>  <fragmenstein_error>  (198) 


$$$$
C12802-P3
     RDKit          3D

 53 55  0  0  0  0  0  0  0  0999 V2000
  -10.0388  -21.5642   32.0696 C   0  0  0  0  0  0  0  0  0  0  0  0
   -9.9176  -21.8324   30.6812 O   0  0  0  0  0  0  0  0  0  0  0  0
  -10.9513  -21.3075   29.8316 C   0  0  0  0  0  0  0  0  0  0  0  0
  -11.0324  -19.7846   29.7702 C   0  0  0  0  0  0  0  0  0  0  0  0
  -10.6823  -21.9540   28.4443 C   0  0  0  0  0  0  0  0  0  0  0  0
  -11.7713  -22.0297   27.4649 N   0  0  0  0  0  0  0  0  0  0  0  0
  -12.1565  -20.7335   26.9340 C   0  0  0  0  0  0  0  0  0  0  0  0
  -12.6981  -20.9860   25.5382 C   0  0  0  0  0  0  0  0  0  0  0  0
  -12.5260  -22.4680   25.2765 C   0  0  0  0  0  0  0  0  0  0  0  0
  -13.8546  -23.2323   25.4832 C   0  0  0  0  0  0  0  0  0  0  0  0
  -14.0121  -23.6009   26.8544 N   0  0  0  0  0  0  0  0  0  0  0  0
  -14.3413  -24.9667   27.4940 C   0  0  0  0  0  0  0  0  0  0  0  0
  -14.6111  -25.9858   26.9998 O   0  0  0  0  0  0  0  0  0  0  0  0
  -14.1416  -24.7740   28.9898 C   0  0  0  0  0  0  0  0  0  0  0  0
  -12.6490  -24.3972   29.2299 C   0  0  0  0  0  0  0  0  0  0  0  0
  -11.9361  -25.2235   30.1483 N   0  0  0  0  0  0  0  0  0  0  0  0
  -11.2591  -24.9398   31.2751 C   0  0  0  0  0  0  0  0  0  0  0  0
  -11.4936  -25.8925   32.1531 N   0  0  0  0  0  0  0  0  0  0  0  0
  -11.9906  -26.9196   31.4023 C   0  0  0  0  0  0  0  0  0  0  0  0
  -12.3514  -28.2079   31.7457 C   0  0  0  0  0  0  0  0  0  0  0  0
  -12.6924  -29.0727   30.6974 C   0  0  0  0  0  0  0  0  0  0  0  0
  -12.6612  -28.6786   29.3581 C   0  0  0  0  0  0  0  0  0  0  0  0
  -12.3290  -27.3904   29.0069 C   0  0  0  0  0  0  0  0  0  0  0  0
  -12.0434  -26.5621   30.0737 C   0  0  0  0  0  0  0  0  0  0  0  0
  -11.4131  -22.8300   26.2658 C   0  0  0  0  0  0  0  0  0  0  0  0
   -9.8415  -20.5114   32.2837 H   0  0  0  0  0  0  0  0  0  0  0  0
  -11.0296  -21.8282   32.4345 H   0  0  0  0  0  0  0  0  0  0  0  0
   -9.2949  -22.1633   32.6019 H   0  0  0  0  0  0  0  0  0  0  0  0
  -11.8869  -21.6557   30.2428 H   0  0  0  0  0  0  0  0  0  0  0  0
  -10.2589  -19.3677   29.1268 H   0  0  0  0  0  0  0  0  0  0  0  0
  -11.9613  -19.4433   29.3255 H   0  0  0  0  0  0  0  0  0  0  0  0
  -10.9466  -19.3229   30.7567 H   0  0  0  0  0  0  0  0  0  0  0  0
  -10.3825  -22.9819   28.6554 H   0  0  0  0  0  0  0  0  0  0  0  0
   -9.7968  -21.4867   28.0167 H   0  0  0  0  0  0  0  0  0  0  0  0
  -11.3287  -20.0318   26.9093 H   0  0  0  0  0  0  0  0  0  0  0  0
  -12.9165  -20.2812   27.5539 H   0  0  0  0  0  0  0  0  0  0  0  0
  -12.1372  -20.4008   24.8012 H   0  0  0  0  0  0  0  0  0  0  0  0
  -13.7436  -20.7203   25.4376 H   0  0  0  0  0  0  0  0  0  0  0  0
  -12.2092  -22.5781   24.2362 H   0  0  0  0  0  0  0  0  0  0  0  0
  -14.7280  -22.6515   25.1735 H   0  0  0  0  0  0  0  0  0  0  0  0
  -13.8501  -24.1642   24.9148 H   0  0  0  0  0  0  0  0  0  0  0  0
  -13.9036  -22.9009   27.5847 H   0  0  0  0  0  0  0  0  0  0  0  0
  -14.4470  -25.6927   29.5006 H   0  0  0  0  0  0  0  0  0  0  0  0
  -14.8398  -24.0150   29.3408 H   0  0  0  0  0  0  0  0  0  0  0  0
  -12.5452  -23.3814   29.5451 H   0  0  0  0  0  0  0  0  0  0  0  0
  -12.0822  -24.5181   28.3066 H   0  0  0  0  0  0  0  0  0  0  0  0
  -10.7256  -24.0214   31.4557 H   0  0  0  0  0  0  0  0  0  0  0  0
  -12.3418  -28.5285   32.7797 H   0  0  0  0  0  0  0  0  0  0  0  0
  -12.9777  -30.0973   30.9338 H   0  0  0  0  0  0  0  0  0  0  0  0
  -12.9322  -29.3939   28.5836 H   0  0  0  0  0  0  0  0  0  0  0  0
  -12.3538  -27.0637   27.9745 H   0  0  0  0  0  0  0  0  0  0  0  0
  -10.4419  -22.5415   25.8573 H   0  0  0  0  0  0  0  0  0  0  0  0
  -11.3683  -23.9050   26.4564 H   0  0  0  0  0  0  0  0  0  0  0  0
  1  2  1  0
  2  3  1  0
  3  4  1  0
  3  5  1  0
  5  6  1  0
  6  7  1  0
  7  8  1  0
  8  9  1  0
  9 10  1  0
 10 11  1  0
 11 12  1  0
 12 13  2  0
 12 14  1  0
 14 15  1  0
 15 16  1  0
 16 17  1  0
 17 18  2  0
 18 19  1  0
 19 20  2  0
 20 21  1  0
 21 22  2  0
 22 23  1  0
 23 24  2  0
  9 25  1  0
 25  6  1  0
 24 16  1  0
 24 19  1  0
  1 26  1  0
  1 27  1  0
  1 28  1  0
  3 29  1  0
  4 30  1  0
  4 31  1  0
  4 32  1  0
  5 33  1  0
  5 34  1  0
  7 35  1  0
  7 36  1  0
  8 37  1  0
  8 38  1  0
  9 39  1  0
 10 40  1  0
 10 41  1  0
 11 42  1  0
 14 43  1  0
 14 44  1  0
 15 45  1  0
 15 46  1  0
 17 47  1  0
 20 48  1  0
 21 49  1  0
 22 50  1  0
 23 51  1  0
 25 52  1  0
 25 53  1  0
M  END
>  <Energy>  (199) 
72.063053579503446

>  <compound_id>  (199) 
12802

>  <target_id>  (199) 
1

>  <reference_id>  (199) 
3

>  <inspiration_ids>  (199) 
[3, 94]

>  <energy_score>  (199) 
14.007310347355372

>  <distance_score>  (199) 
3.410504804031368

>  <path>  (199) 
/opt/xchem-fragalysis-2/maxwin/BulkDock/SCRATCH/511014/C12802-P3/C12802-P3.minimised.mol

>  <scratch_subdir>  (199) 
/opt/xchem-fragalysis-2/maxwin/BulkDock/SCRATCH/511014/C12802-P3

>  <fragmenstein_runtime>  (199) 
4.9063215255737305

>  <fragmenstein_outcome>  (199) 
too moved

>  <fragmenstein_mode>  (199) 
expansion

>  <fragmenstein_error>  (199) 


$$$$
C12802-P94
     RDKit          3D

 53 55  0  0  0  0  0  0  0  0999 V2000
   -8.6841  -23.2198   32.9902 C   0  0  0  0  0  0  0  0  0  0  0  0
   -9.9543  -22.9848   32.2993 O   0  0  0  0  0  0  0  0  0  0  0  0
  -10.5268  -21.9206   31.4925 C   0  0  0  0  0  0  0  0  0  0  0  0
  -11.1137  -20.8979   32.4285 C   0  0  0  0  0  0  0  0  0  0  0  0
  -10.9215  -21.6669   29.8505 C   0  0  0  0  0  0  0  0  0  0  0  0
  -10.6936  -22.4171   28.5738 N   0  0  0  0  0  0  0  0  0  0  0  0
  -11.7050  -22.2830   27.5526 C   0  0  0  0  0  0  0  0  0  0  0  0
  -11.7966  -23.5379   26.7000 C   0  0  0  0  0  0  0  0  0  0  0  0
  -11.1532  -24.5325   27.5992 C   0  0  0  0  0  0  0  0  0  0  0  0
  -12.1637  -25.0351   28.5803 C   0  0  0  0  0  0  0  0  0  0  0  0
  -12.3642  -24.2324   29.8052 N   0  0  0  0  0  0  0  0  0  0  0  0
  -12.3731  -24.6057   31.1652 C   0  0  0  0  0  0  0  0  0  0  0  0
  -12.2530  -25.6637   31.6659 O   0  0  0  0  0  0  0  0  0  0  0  0
  -12.6935  -23.5421   32.2550 C   0  0  0  0  0  0  0  0  0  0  0  0
  -11.8845  -23.9367   33.4741 C   0  0  0  0  0  0  0  0  0  0  0  0
  -10.7828  -24.9035   33.4116 N   0  0  0  0  0  0  0  0  0  0  0  0
  -10.6899  -25.6721   34.4961 C   0  0  0  0  0  0  0  0  0  0  0  0
  -10.7103  -26.9244   34.1612 N   0  0  0  0  0  0  0  0  0  0  0  0
  -10.6681  -26.8914   32.7624 C   0  0  0  0  0  0  0  0  0  0  0  0
  -10.9621  -27.7751   31.6998 C   0  0  0  0  0  0  0  0  0  0  0  0
  -10.7128  -27.3244   30.4241 C   0  0  0  0  0  0  0  0  0  0  0  0
   -9.7835  -26.3658   30.2014 C   0  0  0  0  0  0  0  0  0  0  0  0
   -9.5021  -25.4915   31.2224 C   0  0  0  0  0  0  0  0  0  0  0  0
  -10.1345  -25.6598   32.4439 C   0  0  0  0  0  0  0  0  0  0  0  0
  -10.1273  -23.7251   28.3326 C   0  0  0  0  0  0  0  0  0  0  0  0
   -7.9960  -23.8117   32.3980 H   0  0  0  0  0  0  0  0  0  0  0  0
   -8.7864  -23.9446   33.7615 H   0  0  0  0  0  0  0  0  0  0  0  0
   -8.1158  -22.3340   33.2845 H   0  0  0  0  0  0  0  0  0  0  0  0
  -11.2967  -22.5914   31.3177 H   0  0  0  0  0  0  0  0  0  0  0  0
  -10.4459  -20.0563   32.5746 H   0  0  0  0  0  0  0  0  0  0  0  0
  -12.0713  -20.6298   32.0512 H   0  0  0  0  0  0  0  0  0  0  0  0
  -11.3964  -21.2569   33.4140 H   0  0  0  0  0  0  0  0  0  0  0  0
  -10.4882  -20.7126   29.6582 H   0  0  0  0  0  0  0  0  0  0  0  0
  -11.9891  -21.4071   29.8776 H   0  0  0  0  0  0  0  0  0  0  0  0
  -11.4752  -21.4676   26.8967 H   0  0  0  0  0  0  0  0  0  0  0  0
  -12.6449  -22.1551   28.0639 H   0  0  0  0  0  0  0  0  0  0  0  0
  -11.2395  -23.4880   25.7673 H   0  0  0  0  0  0  0  0  0  0  0  0
  -12.8212  -23.7893   26.4115 H   0  0  0  0  0  0  0  0  0  0  0  0
  -10.7266  -25.3646   27.0306 H   0  0  0  0  0  0  0  0  0  0  0  0
  -13.0831  -25.2814   28.0503 H   0  0  0  0  0  0  0  0  0  0  0  0
  -11.8630  -26.0172   28.8887 H   0  0  0  0  0  0  0  0  0  0  0  0
  -12.5771  -23.2586   29.7349 H   0  0  0  0  0  0  0  0  0  0  0  0
  -13.6676  -23.6183   32.7442 H   0  0  0  0  0  0  0  0  0  0  0  0
  -12.8747  -22.5211   31.9292 H   0  0  0  0  0  0  0  0  0  0  0  0
  -12.6247  -24.4242   34.1213 H   0  0  0  0  0  0  0  0  0  0  0  0
  -11.5720  -23.0866   34.0711 H   0  0  0  0  0  0  0  0  0  0  0  0
  -10.8246  -25.1851   35.4249 H   0  0  0  0  0  0  0  0  0  0  0  0
  -11.5045  -28.7002   31.7616 H   0  0  0  0  0  0  0  0  0  0  0  0
  -11.2493  -27.7322   29.5835 H   0  0  0  0  0  0  0  0  0  0  0  0
   -9.4176  -26.2093   29.1955 H   0  0  0  0  0  0  0  0  0  0  0  0
   -8.9618  -24.6256   30.9678 H   0  0  0  0  0  0  0  0  0  0  0  0
   -9.2311  -23.6257   27.7315 H   0  0  0  0  0  0  0  0  0  0  0  0
   -9.8521  -24.2616   29.2046 H   0  0  0  0  0  0  0  0  0  0  0  0
  1  2  1  0
  2  3  1  0
  3  4  1  0
  3  5  1  0
  5  6  1  0
  6  7  1  0
  7  8  1  0
  8  9  1  0
  9 10  1  0
 10 11  1  0
 11 12  1  0
 12 13  2  0
 12 14  1  0
 14 15  1  0
 15 16  1  0
 16 17  1  0
 17 18  2  0
 18 19  1  0
 19 20  2  0
 20 21  1  0
 21 22  2  0
 22 23  1  0
 23 24  2  0
  9 25  1  0
 25  6  1  0
 24 16  1  0
 24 19  1  0
  1 26  1  0
  1 27  1  0
  1 28  1  0
  3 29  1  0
  4 30  1  0
  4 31  1  0
  4 32  1  0
  5 33  1  0
  5 34  1  0
  7 35  1  0
  7 36  1  0
  8 37  1  0
  8 38  1  0
  9 39  1  0
 10 40  1  0
 10 41  1  0
 11 42  1  0
 14 43  1  0
 14 44  1  0
 15 45  1  0
 15 46  1  0
 17 47  1  0
 20 48  1  0
 21 49  1  0
 22 50  1  0
 23 51  1  0
 25 52  1  0
 25 53  1  0
M  END
>  <Energy>  (200) 
377.52526856417126

>  <compound_id>  (200) 
12802

>  <target_id>  (200) 
1

>  <reference_id>  (200) 
94

>  <inspiration_ids>  (200) 
[3, 94]

>  <energy_score>  (200) 
313.0735786202721

>  <distance_score>  (200) 
2.405503793661609

>  <path>  (200) 
/opt/xchem-fragalysis-2/maxwin/BulkDock/SCRATCH/511014/C12802-P94/C12802-P94.minimised.mol

>  <scratch_subdir>  (200) 
/opt/xchem-fragalysis-2/maxwin/BulkDock/SCRATCH/511014/C12802-P94

>  <fragmenstein_runtime>  (200) 
7.576845407485962

>  <fragmenstein_outcome>  (200) 
too moved

>  <fragmenstein_mode>  (200) 
expansion

>  <fragmenstein_error>  (200) 


$$$$
C14360-P48
     RDKit          3D

 47 49  0  0  0  0  0  0  0  0999 V2000
   -8.6656   -4.3599    6.3991 C   0  0  0  0  0  0  0  0  0  0  0  0
   -8.8558   -5.6838    6.8958 O   0  0  0  0  0  0  0  0  0  0  0  0
   -7.8832   -6.2153    7.7268 C   0  0  0  0  0  0  0  0  0  0  0  0
   -7.2059   -5.3539    8.5860 C   0  0  0  0  0  0  0  0  0  0  0  0
   -6.4220   -6.2542    9.6763 C   0  0  0  0  0  0  0  0  0  0  0  0
   -6.3730   -7.7470   10.1085 C   0  0  0  0  0  0  0  0  0  0  0  0
   -7.5010   -8.4190    9.8410 C   0  0  0  0  0  0  0  0  0  0  0  0
   -7.9797   -7.9923    8.4938 C   0  0  0  0  0  0  0  0  0  0  0  0
   -9.4287   -8.9007    8.5053 O   0  0  0  0  0  0  0  0  0  0  0  0
  -10.3913   -9.5628    9.9985 C   0  0  0  0  0  0  0  0  0  0  0  0
   -9.6786   -9.5571   11.6627 C   0  0  0  0  0  0  0  0  0  0  0  0
   -9.5993  -11.0797   12.7481 C   0  0  0  0  0  0  0  0  0  0  0  0
   -9.9368  -12.0567   12.1119 O   0  0  0  0  0  0  0  0  0  0  0  0
   -9.2649  -10.9763   14.2441 N   0  0  0  0  0  0  0  0  0  0  0  0
   -9.3756  -12.0750   15.4297 C   0  0  0  0  0  0  0  0  0  0  0  0
   -9.5490  -13.6358   15.3564 C   0  0  0  0  0  0  0  0  0  0  0  0
   -9.9836  -14.4200   14.2849 C   0  0  0  0  0  0  0  0  0  0  0  0
  -10.2978  -15.7836   14.4201 C   0  0  0  0  0  0  0  0  0  0  0  0
  -10.1568  -16.3716   15.6483 C   0  0  0  0  0  0  0  0  0  0  0  0
   -9.7158  -15.6939   16.7201 N   0  0  0  0  0  0  0  0  0  0  0  0
   -9.4432  -14.3658   16.5468 C   0  0  0  0  0  0  0  0  0  0  0  0
   -7.7441  -11.2157   14.4831 C   0  0  0  0  0  0  0  0  0  0  0  0
   -7.0374  -10.8951   15.8241 C   0  0  0  0  0  0  0  0  0  0  0  0
   -7.1356  -12.5462   13.9397 C   0  0  0  0  0  0  0  0  0  0  0  0
   -8.4934   -8.9825   11.3199 C   0  0  0  0  0  0  0  0  0  0  0  0
   -8.9004   -3.6207    7.1717 H   0  0  0  0  0  0  0  0  0  0  0  0
   -9.3711   -4.2049    5.5780 H   0  0  0  0  0  0  0  0  0  0  0  0
   -7.6536   -4.2153    6.0057 H   0  0  0  0  0  0  0  0  0  0  0  0
   -7.1009   -4.3679    8.2059 H   0  0  0  0  0  0  0  0  0  0  0  0
   -5.5487   -6.1129   10.3358 H   0  0  0  0  0  0  0  0  0  0  0  0
   -5.6982   -7.9810   10.9321 H   0  0  0  0  0  0  0  0  0  0  0  0
  -11.4505   -9.3500    9.8763 H   0  0  0  0  0  0  0  0  0  0  0  0
  -10.4503  -10.6352    9.8496 H   0  0  0  0  0  0  0  0  0  0  0  0
  -10.3975  -11.8220   15.7524 H   0  0  0  0  0  0  0  0  0  0  0  0
   -8.9306  -11.7713   16.3818 H   0  0  0  0  0  0  0  0  0  0  0  0
  -10.0992  -14.0045   13.2851 H   0  0  0  0  0  0  0  0  0  0  0  0
  -10.6054  -16.3553   13.5569 H   0  0  0  0  0  0  0  0  0  0  0  0
  -10.3892  -17.4159   15.8084 H   0  0  0  0  0  0  0  0  0  0  0  0
   -9.1435  -13.8718   17.4697 H   0  0  0  0  0  0  0  0  0  0  0  0
   -7.3490  -10.3617   13.9359 H   0  0  0  0  0  0  0  0  0  0  0  0
   -7.5201  -10.0541   16.3344 H   0  0  0  0  0  0  0  0  0  0  0  0
   -6.9681  -11.7489   16.5081 H   0  0  0  0  0  0  0  0  0  0  0  0
   -5.9982  -10.6000   15.6282 H   0  0  0  0  0  0  0  0  0  0  0  0
   -6.0859  -12.3875   13.6649 H   0  0  0  0  0  0  0  0  0  0  0  0
   -7.1180  -13.3435   14.6869 H   0  0  0  0  0  0  0  0  0  0  0  0
   -7.6708  -12.8920   13.0577 H   0  0  0  0  0  0  0  0  0  0  0  0
   -8.1125   -8.8163   12.3493 H   0  0  0  0  0  0  0  0  0  0  0  0
  1  2  1  0
  2  3  1  0
  3  4  2  0
  4  5  1  0
  5  6  2  0
  6  7  1  0
  7  8  2  0
  8  9  1  0
  9 10  1  0
 10 11  1  0
 11 12  1  0
 12 13  2  0
 12 14  1  0
 14 15  1  0
 15 16  1  0
 16 17  2  0
 17 18  1  0
 18 19  2  0
 19 20  1  0
 20 21  2  0
 14 22  1  0
 22 23  1  0
 22 24  1  0
 11 25  2  0
  8  3  1  0
 21 16  1  0
 25  7  1  0
  1 26  1  0
  1 27  1  0
  1 28  1  0
  4 29  1  0
  5 30  1  0
  6 31  1  0
 10 32  1  0
 10 33  1  0
 15 34  1  0
 15 35  1  0
 17 36  1  0
 18 37  1  0
 19 38  1  0
 21 39  1  0
 22 40  1  0
 23 41  1  0
 23 42  1  0
 23 43  1  0
 24 44  1  0
 24 45  1  0
 24 46  1  0
 25 47  1  0
M  END
>  <Energy>  (201) 
604.85537780222626

>  <compound_id>  (201) 
14360

>  <target_id>  (201) 
1

>  <reference_id>  (201) 
48

>  <inspiration_ids>  (201) 
[91, 48]

>  <energy_score>  (201) 
507.007001135907

>  <distance_score>  (201) 
11.051570427180025

>  <path>  (201) 
/opt/xchem-fragalysis-2/maxwin/BulkDock/SCRATCH/511014/C14360-P48/C14360-P48.minimised.mol

>  <scratch_subdir>  (201) 
/opt/xchem-fragalysis-2/maxwin/BulkDock/SCRATCH/511014/C14360-P48

>  <fragmenstein_runtime>  (201) 
11.48283338546753

>  <fragmenstein_outcome>  (201) 
too moved

>  <fragmenstein_mode>  (201) 
expansion

>  <fragmenstein_error>  (201) 


$$$$
C14361-P48
     RDKit          3D

 34 36  0  0  0  0  0  0  0  0999 V2000
   -6.5046   -3.9263    5.4619 C   0  0  0  0  0  0  0  0  0  0  0  0
   -7.3286   -4.6214    6.4874 C   0  0  0  0  0  0  0  0  0  0  0  0
   -8.1045   -3.9750    7.3396 C   0  0  0  0  0  0  0  0  0  0  0  0
   -8.8187   -4.9039    8.0199 C   0  0  0  0  0  0  0  0  0  0  0  0
   -9.0098   -6.4877    7.6524 C   0  0  0  0  0  0  0  0  0  0  0  0
   -7.7037   -7.3746    8.0250 C   0  0  0  0  0  0  0  0  0  0  0  0
   -7.2716   -6.0535    6.7885 C   0  0  0  0  0  0  0  0  0  0  0  0
   -9.0750   -9.0082    7.9512 C   0  0  0  0  0  0  0  0  0  0  0  0
   -8.9483  -10.7788    8.0193 C   0  0  0  0  0  0  0  0  0  0  0  0
   -9.6601  -12.7321    8.6588 C   0  0  0  0  0  0  0  0  0  0  0  0
   -9.9139  -12.9306    9.8511 O   0  0  0  0  0  0  0  0  0  0  0  0
   -9.9531  -13.8306    7.2749 N   0  0  0  0  0  0  0  0  0  0  0  0
  -10.9177  -15.6322    7.1002 C   0  0  0  0  0  0  0  0  0  0  0  0
  -12.1437  -15.8456    7.3816 C   0  0  0  0  0  0  0  0  0  0  0  0
  -12.7265  -16.6457    8.9828 C   0  0  0  0  0  0  0  0  0  0  0  0
  -12.5457  -17.7348    9.6354 C   0  0  0  0  0  0  0  0  0  0  0  0
  -11.6805  -18.1847    8.9198 N   0  0  0  0  0  0  0  0  0  0  0  0
  -11.2792  -17.0309    7.6326 C   0  0  0  0  0  0  0  0  0  0  0  0
   -7.7328   -9.2526    8.6539 C   0  0  0  0  0  0  0  0  0  0  0  0
   -7.8215   -7.7534    8.5963 O   0  0  0  0  0  0  0  0  0  0  0  0
   -6.2897   -4.5752    4.6088 H   0  0  0  0  0  0  0  0  0  0  0  0
   -5.5626   -3.5829    5.9000 H   0  0  0  0  0  0  0  0  0  0  0  0
   -7.0388   -3.0544    5.0682 H   0  0  0  0  0  0  0  0  0  0  0  0
   -8.1502   -2.9131    7.5086 H   0  0  0  0  0  0  0  0  0  0  0  0
   -9.2905   -4.5524    8.9340 H   0  0  0  0  0  0  0  0  0  0  0  0
   -6.6356   -6.4955    6.0439 H   0  0  0  0  0  0  0  0  0  0  0  0
   -9.6495   -8.7655    7.0680 H   0  0  0  0  0  0  0  0  0  0  0  0
   -9.7183  -13.3636    6.4186 H   0  0  0  0  0  0  0  0  0  0  0  0
  -12.8380  -15.2739    6.7096 H   0  0  0  0  0  0  0  0  0  0  0  0
  -13.7447  -16.6981    9.2475 H   0  0  0  0  0  0  0  0  0  0  0  0
  -13.3541  -18.2981   10.0643 H   0  0  0  0  0  0  0  0  0  0  0  0
  -10.5358  -18.1397    7.8824 H   0  0  0  0  0  0  0  0  0  0  0  0
   -6.6714   -9.3536    8.1474 H   0  0  0  0  0  0  0  0  0  0  0  0
   -7.7552   -8.9412    9.7850 H   0  0  0  0  0  0  0  0  0  0  0  0
  1  2  1  0
  2  3  2  0
  3  4  1  0
  4  5  2  0
  5  6  1  0
  6  7  2  0
  6  8  1  0
  8  9  2  0
  9 10  1  0
 10 11  2  0
 10 12  1  0
 12 13  1  0
 13 14  2  0
 14 15  1  0
 15 16  2  0
 16 17  1  0
 17 18  2  0
  9 19  1  0
 19 20  1  0
  7  2  1  0
 18 13  1  0
 20  5  1  0
  1 21  1  0
  1 22  1  0
  1 23  1  0
  3 24  1  0
  4 25  1  0
  7 26  1  0
  8 27  1  0
 12 28  1  0
 14 29  1  0
 15 30  1  0
 16 31  1  0
 18 32  1  0
 19 33  1  0
 19 34  1  0
M  END
>  <Energy>  (202) 
1973.9901785185762

>  <compound_id>  (202) 
14361

>  <target_id>  (202) 
1

>  <reference_id>  (202) 
48

>  <inspiration_ids>  (202) 
[91, 48]

>  <energy_score>  (202) 
1899.370612507711

>  <distance_score>  (202) 
7.983845367988326

>  <path>  (202) 
/opt/xchem-fragalysis-2/maxwin/BulkDock/SCRATCH/511014/C14361-P48/C14361-P48.minimised.mol

>  <scratch_subdir>  (202) 
/opt/xchem-fragalysis-2/maxwin/BulkDock/SCRATCH/511014/C14361-P48

>  <fragmenstein_runtime>  (202) 
7.5699241161346436

>  <fragmenstein_outcome>  (202) 
too moved

>  <fragmenstein_mode>  (202) 
expansion

>  <fragmenstein_error>  (202) 


$$$$
C14362-P48
     RDKit          3D

 42 45  0  0  0  0  0  0  0  0999 V2000
  -10.2845   -7.6810    4.9543 C   0  0  0  0  0  0  0  0  0  0  0  0
  -10.0387   -8.0379    6.3342 C   0  0  0  0  0  0  0  0  0  0  0  0
   -9.5628   -9.5992    7.6488 C   0  0  0  0  0  0  0  0  0  0  0  0
   -8.9889  -11.5332    7.7777 N   0  0  0  0  0  0  0  0  0  0  0  0
   -9.9587  -12.5950    9.0611 C   0  0  0  0  0  0  0  0  0  0  0  0
   -9.5876  -13.9190    8.5105 C   0  0  0  0  0  0  0  0  0  0  0  0
  -10.4485  -15.2655    7.0596 C   0  0  0  0  0  0  0  0  0  0  0  0
  -11.1653  -17.1107    7.7037 C   0  0  0  0  0  0  0  0  0  0  0  0
   -9.7751  -18.3359    8.2388 C   0  0  0  0  0  0  0  0  0  0  0  0
   -9.3799  -19.9291    8.5366 C   0  0  0  0  0  0  0  0  0  0  0  0
  -10.3727  -20.7613    8.2090 C   0  0  0  0  0  0  0  0  0  0  0  0
  -11.3787  -20.0801    8.4309 N   0  0  0  0  0  0  0  0  0  0  0  0
  -10.9484  -18.6456    8.2531 C   0  0  0  0  0  0  0  0  0  0  0  0
   -9.5048  -13.3199    7.0413 C   0  0  0  0  0  0  0  0  0  0  0  0
   -9.4691   -6.2269    6.6257 C   0  0  0  0  0  0  0  0  0  0  0  0
  -10.0843   -5.0460    6.0918 O   0  0  0  0  0  0  0  0  0  0  0  0
  -10.1263   -5.1059    4.7397 C   0  0  0  0  0  0  0  0  0  0  0  0
   -9.6940   -3.9727    4.0137 C   0  0  0  0  0  0  0  0  0  0  0  0
   -9.7777   -3.9938    2.6303 C   0  0  0  0  0  0  0  0  0  0  0  0
  -10.2844   -5.1343    1.9987 C   0  0  0  0  0  0  0  0  0  0  0  0
  -10.6483   -6.2842    2.7323 C   0  0  0  0  0  0  0  0  0  0  0  0
  -10.5366   -6.3081    4.1314 C   0  0  0  0  0  0  0  0  0  0  0  0
  -10.0180   -8.4059    4.2243 H   0  0  0  0  0  0  0  0  0  0  0  0
  -10.2967   -9.5294    8.4443 H   0  0  0  0  0  0  0  0  0  0  0  0
   -8.7981   -8.9752    8.1853 H   0  0  0  0  0  0  0  0  0  0  0  0
  -10.7039  -11.9963    9.5552 H   0  0  0  0  0  0  0  0  0  0  0  0
   -9.5767  -12.7379   10.1414 H   0  0  0  0  0  0  0  0  0  0  0  0
   -8.6643  -14.0533    9.0901 H   0  0  0  0  0  0  0  0  0  0  0  0
   -9.7094  -14.2740    9.4944 H   0  0  0  0  0  0  0  0  0  0  0  0
  -11.5909  -15.1382    6.7151 H   0  0  0  0  0  0  0  0  0  0  0  0
   -8.6736  -18.0012    8.1045 H   0  0  0  0  0  0  0  0  0  0  0  0
   -8.4298  -20.0434    9.0130 H   0  0  0  0  0  0  0  0  0  0  0  0
  -10.5780  -21.7124    7.7999 H   0  0  0  0  0  0  0  0  0  0  0  0
  -10.4036  -19.2555    6.9698 H   0  0  0  0  0  0  0  0  0  0  0  0
   -9.8382  -12.6775    6.2113 H   0  0  0  0  0  0  0  0  0  0  0  0
   -8.5842  -13.6717    6.6257 H   0  0  0  0  0  0  0  0  0  0  0  0
   -9.2881   -6.1016    7.6577 H   0  0  0  0  0  0  0  0  0  0  0  0
   -8.4232   -5.9412    6.4037 H   0  0  0  0  0  0  0  0  0  0  0  0
   -9.3359   -3.0976    4.5447 H   0  0  0  0  0  0  0  0  0  0  0  0
   -9.4805   -3.1276    2.0472 H   0  0  0  0  0  0  0  0  0  0  0  0
  -10.3653   -5.1511    0.9135 H   0  0  0  0  0  0  0  0  0  0  0  0
  -10.9178   -7.1726    2.1761 H   0  0  0  0  0  0  0  0  0  0  0  0
  1  2  2  0
  2  3  1  0
  3  4  1  0
  4  5  1  0
  5  6  1  0
  6  7  1  0
  7  8  1  0
  8  9  2  0
  9 10  1  0
 10 11  2  0
 11 12  1  0
 12 13  2  0
  7 14  1  0
  2 15  1  0
 15 16  1  0
 16 17  1  0
 17 18  2  0
 18 19  1  0
 19 20  2  0
 20 21  1  0
 21 22  2  0
 22  1  1  0
 14  4  1  0
 22 17  1  0
 13  8  1  0
  1 23  1  0
  3 24  1  0
  3 25  1  0
  5 26  1  0
  5 27  1  0
  6 28  1  0
  6 29  1  0
  7 30  1  0
  9 31  1  0
 10 32  1  0
 11 33  1  0
 13 34  1  0
 14 35  1  0
 14 36  1  0
 15 37  1  0
 15 38  1  0
 18 39  1  0
 19 40  1  0
 20 41  1  0
 21 42  1  0
M  END
>  <Energy>  (203) 
1716.0525441978011

>  <compound_id>  (203) 
14362

>  <target_id>  (203) 
1

>  <reference_id>  (203) 
48

>  <inspiration_ids>  (203) 
[91, 48]

>  <energy_score>  (203) 
1629.380434612697

>  <distance_score>  (203) 
7.4826853319193765

>  <path>  (203) 
/opt/xchem-fragalysis-2/maxwin/BulkDock/SCRATCH/511014/C14362-P48/C14362-P48.minimised.mol

>  <scratch_subdir>  (203) 
/opt/xchem-fragalysis-2/maxwin/BulkDock/SCRATCH/511014/C14362-P48

>  <fragmenstein_runtime>  (203) 
7.957646131515503

>  <fragmenstein_outcome>  (203) 
too moved

>  <fragmenstein_mode>  (203) 
expansion

>  <fragmenstein_error>  (203) 


$$$$
C14364-P48
     RDKit          3D

 38 40  0  0  0  0  0  0  0  0999 V2000
   -8.3397   -8.6178   10.2919 O   0  0  0  0  0  0  0  0  0  0  0  0
   -9.2496   -8.3243   11.0889 C   0  0  0  0  0  0  0  0  0  0  0  0
  -10.0969   -9.8782   12.0500 N   0  0  0  0  0  0  0  0  0  0  0  0
   -9.8726  -11.9854   11.8861 C   0  0  0  0  0  0  0  0  0  0  0  0
  -10.4191  -14.0258   12.2017 C   0  0  0  0  0  0  0  0  0  0  0  0
  -10.8395  -15.8024   11.9324 C   0  0  0  0  0  0  0  0  0  0  0  0
  -11.3202  -17.1886   10.2974 C   0  0  0  0  0  0  0  0  0  0  0  0
  -11.3704  -18.6430    9.4888 C   0  0  0  0  0  0  0  0  0  0  0  0
  -11.3091  -20.2687    8.4778 C   0  0  0  0  0  0  0  0  0  0  0  0
  -10.4369  -20.5398    7.5774 C   0  0  0  0  0  0  0  0  0  0  0  0
   -9.7026  -19.6347    8.0048 N   0  0  0  0  0  0  0  0  0  0  0  0
  -10.4517  -18.5018    9.0666 C   0  0  0  0  0  0  0  0  0  0  0  0
   -9.9160   -5.9872   11.1300 C   0  0  0  0  0  0  0  0  0  0  0  0
   -9.4007   -4.9463    9.7988 C   0  0  0  0  0  0  0  0  0  0  0  0
   -9.0807   -3.6790    8.8009 C   0  0  0  0  0  0  0  0  0  0  0  0
   -8.4473   -3.6312    7.5700 C   0  0  0  0  0  0  0  0  0  0  0  0
   -8.2424   -2.3635    7.0049 C   0  0  0  0  0  0  0  0  0  0  0  0
   -7.5361   -2.2781    5.8662 F   0  0  0  0  0  0  0  0  0  0  0  0
   -8.7243   -1.1668    7.5984 C   0  0  0  0  0  0  0  0  0  0  0  0
   -9.4052   -1.1893    8.8188 C   0  0  0  0  0  0  0  0  0  0  0  0
   -9.4783   -2.4509    9.3879 C   0  0  0  0  0  0  0  0  0  0  0  0
  -10.1394   -2.8216   10.8688 O   0  0  0  0  0  0  0  0  0  0  0  0
   -9.6098   -4.4876   11.6051 C   0  0  0  0  0  0  0  0  0  0  0  0
  -10.7347   -9.5208   12.7120 H   0  0  0  0  0  0  0  0  0  0  0  0
  -10.1024  -12.1457   10.8228 H   0  0  0  0  0  0  0  0  0  0  0  0
   -8.8482  -12.1119   12.2487 H   0  0  0  0  0  0  0  0  0  0  0  0
  -10.1459  -14.0357   13.2686 H   0  0  0  0  0  0  0  0  0  0  0  0
  -10.6821  -16.3921   12.8555 H   0  0  0  0  0  0  0  0  0  0  0  0
  -10.2653  -18.8967   10.5738 H   0  0  0  0  0  0  0  0  0  0  0  0
  -11.8144  -21.1831    8.7613 H   0  0  0  0  0  0  0  0  0  0  0  0
  -10.2965  -21.3453    6.9048 H   0  0  0  0  0  0  0  0  0  0  0  0
   -9.4982  -18.0248    8.4596 H   0  0  0  0  0  0  0  0  0  0  0  0
   -8.2823   -5.0651    9.6015 H   0  0  0  0  0  0  0  0  0  0  0  0
   -8.0855   -4.5205    7.0698 H   0  0  0  0  0  0  0  0  0  0  0  0
   -8.5477   -0.2231    7.0910 H   0  0  0  0  0  0  0  0  0  0  0  0
   -9.7795   -0.3079    9.3172 H   0  0  0  0  0  0  0  0  0  0  0  0
   -9.4665   -4.3481   12.6934 H   0  0  0  0  0  0  0  0  0  0  0  0
  -10.5946   -4.6841   11.3543 H   0  0  0  0  0  0  0  0  0  0  0  0
  1  2  2  0
  2  3  1  0
  3  4  1  0
  4  5  1  0
  5  6  2  3
  6  7  1  0
  7  8  2  0
  8  9  1  0
  9 10  2  0
 10 11  1  0
 11 12  2  0
  2 13  1  0
 13 14  2  0
 14 15  1  0
 15 16  2  0
 16 17  1  0
 17 18  1  0
 17 19  2  0
 19 20  1  0
 20 21  2  0
 21 22  1  0
 22 23  1  0
 12  7  1  0
 23 13  1  0
 21 15  1  0
  3 24  1  0
  4 25  1  0
  4 26  1  0
  5 27  1  0
  6 28  1  0
  8 29  1  0
  9 30  1  0
 10 31  1  0
 12 32  1  0
 14 33  1  0
 16 34  1  0
 19 35  1  0
 20 36  1  0
 23 37  1  0
 23 38  1  0
M  END
>  <Energy>  (204) 
2322.5658456546926

>  <compound_id>  (204) 
14364

>  <target_id>  (204) 
1

>  <reference_id>  (204) 
48

>  <inspiration_ids>  (204) 
[91, 48]

>  <energy_score>  (204) 
2283.163983456443

>  <distance_score>  (204) 
5.787591793129833

>  <path>  (204) 
/opt/xchem-fragalysis-2/maxwin/BulkDock/SCRATCH/511014/C14364-P48/C14364-P48.minimised.mol

>  <scratch_subdir>  (204) 
/opt/xchem-fragalysis-2/maxwin/BulkDock/SCRATCH/511014/C14364-P48

>  <fragmenstein_runtime>  (204) 
8.79433798789978

>  <fragmenstein_outcome>  (204) 
too moved

>  <fragmenstein_mode>  (204) 
expansion

>  <fragmenstein_error>  (204) 


$$$$
C14365-P48
     RDKit          3D

 32 35  0  0  0  0  0  0  0  0999 V2000
   -9.0254   -4.5819   12.5539 F   0  0  0  0  0  0  0  0  0  0  0  0
  -10.1789   -5.2456   12.6545 C   0  0  0  0  0  0  0  0  0  0  0  0
  -10.7922   -5.5510   14.0391 C   0  0  0  0  0  0  0  0  0  0  0  0
  -12.2183   -6.2552   14.1598 C   0  0  0  0  0  0  0  0  0  0  0  0
  -13.1794   -6.7565   13.0294 C   0  0  0  0  0  0  0  0  0  0  0  0
  -12.8620   -6.5579   11.5577 C   0  0  0  0  0  0  0  0  0  0  0  0
  -11.1644   -5.7149   11.1946 C   0  0  0  0  0  0  0  0  0  0  0  0
  -13.7874   -8.1837   10.9772 C   0  0  0  0  0  0  0  0  0  0  0  0
  -14.7346   -9.3606   11.4772 C   0  0  0  0  0  0  0  0  0  0  0  0
  -14.7352  -11.2399   11.1506 C   0  0  0  0  0  0  0  0  0  0  0  0
  -13.5234  -12.2162   10.8094 N   0  0  0  0  0  0  0  0  0  0  0  0
  -13.5112  -14.0444   11.3210 C   0  0  0  0  0  0  0  0  0  0  0  0
  -13.1202  -15.7027   10.2248 C   0  0  0  0  0  0  0  0  0  0  0  0
  -12.4470  -16.9112   10.6250 C   0  0  0  0  0  0  0  0  0  0  0  0
  -12.8710  -18.1437    9.8985 C   0  0  0  0  0  0  0  0  0  0  0  0
  -11.8332  -18.2681    9.1831 C   0  0  0  0  0  0  0  0  0  0  0  0
  -11.9479  -17.1736    8.4919 N   0  0  0  0  0  0  0  0  0  0  0  0
  -12.7315  -16.3323    9.1035 C   0  0  0  0  0  0  0  0  0  0  0  0
  -14.7006  -13.9044   12.2003 N   0  0  0  0  0  0  0  0  0  0  0  0
  -15.5559  -12.4400   11.9333 O   0  0  0  0  0  0  0  0  0  0  0  0
  -14.8605   -8.8294   13.0216 C   0  0  0  0  0  0  0  0  0  0  0  0
  -14.3568   -7.4240   13.4255 O   0  0  0  0  0  0  0  0  0  0  0  0
  -10.2583   -5.2594   14.9386 H   0  0  0  0  0  0  0  0  0  0  0  0
  -12.5636   -6.4317   15.1837 H   0  0  0  0  0  0  0  0  0  0  0  0
  -10.5452   -5.3660   10.3774 H   0  0  0  0  0  0  0  0  0  0  0  0
  -13.1775   -8.5852   11.7894 H   0  0  0  0  0  0  0  0  0  0  0  0
  -12.2385  -16.7181   11.7165 H   0  0  0  0  0  0  0  0  0  0  0  0
  -13.7057  -18.7656   10.1278 H   0  0  0  0  0  0  0  0  0  0  0  0
  -11.1906  -19.0427    8.7951 H   0  0  0  0  0  0  0  0  0  0  0  0
  -13.6997  -16.8026    8.9757 H   0  0  0  0  0  0  0  0  0  0  0  0
  -15.9273   -8.8152   13.2674 H   0  0  0  0  0  0  0  0  0  0  0  0
  -14.3565   -9.5304   13.6939 H   0  0  0  0  0  0  0  0  0  0  0  0
  1  2  1  0
  2  3  2  0
  3  4  1  0
  4  5  2  0
  5  6  1  0
  6  7  2  0
  6  8  1  0
  8  9  2  0
  9 10  1  0
 10 11  2  0
 11 12  1  0
 12 13  1  0
 13 14  2  0
 14 15  1  0
 15 16  2  0
 16 17  1  0
 17 18  2  0
 12 19  2  0
 19 20  1  0
  9 21  1  0
 21 22  1  0
  7  2  1  0
 20 10  1  0
 22  5  1  0
 18 13  1  0
  3 23  1  0
  4 24  1  0
  7 25  1  0
  8 26  1  0
 14 27  1  0
 15 28  1  0
 16 29  1  0
 18 30  1  0
 21 31  1  0
 21 32  1  0
M  END
>  <Energy>  (205) 
1137.118030704919

>  <compound_id>  (205) 
14365

>  <target_id>  (205) 
1

>  <reference_id>  (205) 
48

>  <inspiration_ids>  (205) 
[91, 48]

>  <energy_score>  (205) 
1055.6976907663184

>  <distance_score>  (205) 
10.007363157666394

>  <path>  (205) 
/opt/xchem-fragalysis-2/maxwin/BulkDock/SCRATCH/511014/C14365-P48/C14365-P48.minimised.mol

>  <scratch_subdir>  (205) 
/opt/xchem-fragalysis-2/maxwin/BulkDock/SCRATCH/511014/C14365-P48

>  <fragmenstein_runtime>  (205) 
5.4673380851745605

>  <fragmenstein_outcome>  (205) 
too moved

>  <fragmenstein_mode>  (205) 
expansion

>  <fragmenstein_error>  (205) 


$$$$
C14366-P48
     RDKit          3D

 39 41  0  0  0  0  0  0  0  0999 V2000
   -7.8647   -8.4992    8.6061 O   0  0  0  0  0  0  0  0  0  0  0  0
   -8.9797   -8.2069    8.1336 C   0  0  0  0  0  0  0  0  0  0  0  0
  -10.4053   -9.3441    8.2471 O   0  0  0  0  0  0  0  0  0  0  0  0
  -12.3625   -9.4213    8.1970 C   0  0  0  0  0  0  0  0  0  0  0  0
  -13.9843   -9.7998    7.4267 C   0  0  0  0  0  0  0  0  0  0  0  0
  -14.4016  -10.5600    5.9291 C   0  0  0  0  0  0  0  0  0  0  0  0
  -14.3936  -12.0641    5.4438 C   0  0  0  0  0  0  0  0  0  0  0  0
  -14.0268  -12.3828    4.1272 C   0  0  0  0  0  0  0  0  0  0  0  0
  -13.9534  -13.7116    3.6592 C   0  0  0  0  0  0  0  0  0  0  0  0
  -14.2990  -14.7389    4.5055 C   0  0  0  0  0  0  0  0  0  0  0  0
  -14.7373  -14.4982    5.7415 N   0  0  0  0  0  0  0  0  0  0  0  0
  -14.7739  -13.2015    6.1592 C   0  0  0  0  0  0  0  0  0  0  0  0
   -9.1514   -6.3167    7.3706 C   0  0  0  0  0  0  0  0  0  0  0  0
   -9.6353   -5.6440    6.2461 C   0  0  0  0  0  0  0  0  0  0  0  0
   -9.2687   -4.1961    5.8897 C   0  0  0  0  0  0  0  0  0  0  0  0
   -9.2478   -3.6811    4.5955 C   0  0  0  0  0  0  0  0  0  0  0  0
   -8.7063   -2.4128    4.3515 C   0  0  0  0  0  0  0  0  0  0  0  0
   -8.5650   -1.9980    3.0880 F   0  0  0  0  0  0  0  0  0  0  0  0
   -8.2686   -1.5817    5.3771 C   0  0  0  0  0  0  0  0  0  0  0  0
   -8.3223   -2.0495    6.6767 C   0  0  0  0  0  0  0  0  0  0  0  0
   -8.7693   -3.3540    6.8890 C   0  0  0  0  0  0  0  0  0  0  0  0
   -8.5480   -3.9015    8.1106 O   0  0  0  0  0  0  0  0  0  0  0  0
   -7.9717   -5.1846    7.8355 C   0  0  0  0  0  0  0  0  0  0  0  0
  -12.6063   -9.4711    9.2758 H   0  0  0  0  0  0  0  0  0  0  0  0
  -12.4217   -8.5749    7.5007 H   0  0  0  0  0  0  0  0  0  0  0  0
  -14.5202  -10.2548    8.2538 H   0  0  0  0  0  0  0  0  0  0  0  0
  -14.4443   -8.8009    7.3440 H   0  0  0  0  0  0  0  0  0  0  0  0
  -13.8899   -9.9723    5.1553 H   0  0  0  0  0  0  0  0  0  0  0  0
  -15.4390  -10.2547    5.7561 H   0  0  0  0  0  0  0  0  0  0  0  0
  -13.7609  -11.5851    3.4354 H   0  0  0  0  0  0  0  0  0  0  0  0
  -13.6334  -13.9189    2.6436 H   0  0  0  0  0  0  0  0  0  0  0  0
  -14.2497  -15.7812    4.2096 H   0  0  0  0  0  0  0  0  0  0  0  0
  -15.0665  -13.1511    7.1964 H   0  0  0  0  0  0  0  0  0  0  0  0
  -10.1930   -6.1288    5.4586 H   0  0  0  0  0  0  0  0  0  0  0  0
   -9.6064   -4.2649    3.7551 H   0  0  0  0  0  0  0  0  0  0  0  0
   -7.8662   -0.6009    5.1493 H   0  0  0  0  0  0  0  0  0  0  0  0
   -7.9457   -1.4584    7.5058 H   0  0  0  0  0  0  0  0  0  0  0  0
   -7.2233   -5.1160    7.0251 H   0  0  0  0  0  0  0  0  0  0  0  0
   -7.3756   -5.3747    8.7265 H   0  0  0  0  0  0  0  0  0  0  0  0
  1  2  2  0
  2  3  1  0
  3  4  1  0
  4  5  1  0
  5  6  1  0
  6  7  1  0
  7  8  2  0
  8  9  1  0
  9 10  2  0
 10 11  1  0
 11 12  2  0
  2 13  1  0
 13 14  2  0
 14 15  1  0
 15 16  2  0
 16 17  1  0
 17 18  1  0
 17 19  2  0
 19 20  1  0
 20 21  2  0
 21 22  1  0
 22 23  1  0
 12  7  1  0
 23 13  1  0
 21 15  1  0
  4 24  1  0
  4 25  1  0
  5 26  1  0
  5 27  1  0
  6 28  1  0
  6 29  1  0
  8 30  1  0
  9 31  1  0
 10 32  1  0
 12 33  1  0
 14 34  1  0
 16 35  1  0
 19 36  1  0
 20 37  1  0
 23 38  1  0
 23 39  1  0
M  END
>  <Energy>  (206) 
439.33157343900132

>  <compound_id>  (206) 
14366

>  <target_id>  (206) 
1

>  <reference_id>  (206) 
48

>  <inspiration_ids>  (206) 
[91, 48]

>  <energy_score>  (206) 
386.6699588073803

>  <distance_score>  (206) 
9.089425962994122

>  <path>  (206) 
/opt/xchem-fragalysis-2/maxwin/BulkDock/SCRATCH/511014/C14366-P48/C14366-P48.minimised.mol

>  <scratch_subdir>  (206) 
/opt/xchem-fragalysis-2/maxwin/BulkDock/SCRATCH/511014/C14366-P48

>  <fragmenstein_runtime>  (206) 
7.031798362731934

>  <fragmenstein_outcome>  (206) 
too moved

>  <fragmenstein_mode>  (206) 
expansion

>  <fragmenstein_error>  (206) 


$$$$
C14367-P48
     RDKit          3D

 31 33  0  0  0  0  0  0  0  0999 V2000
   -9.2120  -13.9674    9.0493 O   0  0  0  0  0  0  0  0  0  0  0  0
   -9.5971  -13.6269    7.9778 C   0  0  0  0  0  0  0  0  0  0  0  0
  -10.7156  -15.1411    7.1128 N   0  0  0  0  0  0  0  0  0  0  0  0
  -11.3192  -16.8415    7.7461 C   0  0  0  0  0  0  0  0  0  0  0  0
  -12.2345  -17.0357    8.8506 C   0  0  0  0  0  0  0  0  0  0  0  0
  -12.1822  -18.3542    9.3090 C   0  0  0  0  0  0  0  0  0  0  0  0
  -11.3138  -19.7136    8.6550 C   0  0  0  0  0  0  0  0  0  0  0  0
  -10.1802  -19.7238    8.1713 N   0  0  0  0  0  0  0  0  0  0  0  0
  -10.2418  -18.4368    8.0562 C   0  0  0  0  0  0  0  0  0  0  0  0
   -8.9621  -11.6484    7.6444 C   0  0  0  0  0  0  0  0  0  0  0  0
   -9.5149  -10.1126    7.8042 C   0  0  0  0  0  0  0  0  0  0  0  0
   -8.7995   -8.3370    8.1377 C   0  0  0  0  0  0  0  0  0  0  0  0
   -9.2460   -6.6148    7.4702 C   0  0  0  0  0  0  0  0  0  0  0  0
   -8.3813   -5.3894    7.6046 C   0  0  0  0  0  0  0  0  0  0  0  0
   -8.5033   -4.3119    6.8283 F   0  0  0  0  0  0  0  0  0  0  0  0
   -7.3217   -5.5294    8.5853 C   0  0  0  0  0  0  0  0  0  0  0  0
   -6.8852   -7.1482    9.3017 C   0  0  0  0  0  0  0  0  0  0  0  0
   -7.4468   -8.3466    8.7250 C   0  0  0  0  0  0  0  0  0  0  0  0
   -6.5127   -9.4226    8.0021 O   0  0  0  0  0  0  0  0  0  0  0  0
   -7.5404  -10.9782    8.1392 C   0  0  0  0  0  0  0  0  0  0  0  0
  -11.0955  -14.8069    6.2794 H   0  0  0  0  0  0  0  0  0  0  0  0
  -12.9002  -16.4379    9.3734 H   0  0  0  0  0  0  0  0  0  0  0  0
  -13.1401  -18.5606    9.8189 H   0  0  0  0  0  0  0  0  0  0  0  0
  -11.6334  -20.7651    8.7106 H   0  0  0  0  0  0  0  0  0  0  0  0
   -9.1115  -18.2900    8.0364 H   0  0  0  0  0  0  0  0  0  0  0  0
   -9.4428  -10.2512    6.7337 H   0  0  0  0  0  0  0  0  0  0  0  0
   -9.8713   -6.6069    6.5587 H   0  0  0  0  0  0  0  0  0  0  0  0
   -6.5623   -4.8118    8.4243 H   0  0  0  0  0  0  0  0  0  0  0  0
   -6.0920   -7.2592   10.0474 H   0  0  0  0  0  0  0  0  0  0  0  0
   -7.4086  -11.1638    7.1356 H   0  0  0  0  0  0  0  0  0  0  0  0
   -7.8546  -10.1877    8.5910 H   0  0  0  0  0  0  0  0  0  0  0  0
  1  2  2  0
  2  3  1  0
  3  4  1  0
  4  5  2  0
  5  6  1  0
  6  7  2  0
  7  8  1  0
  8  9  2  0
  2 10  1  0
 10 11  2  0
 11 12  1  0
 12 13  2  0
 13 14  1  0
 14 15  1  0
 14 16  2  0
 16 17  1  0
 17 18  2  0
 18 19  1  0
 19 20  1  0
  9  4  1  0
 20 10  1  0
 18 12  1  0
  3 21  1  0
  5 22  1  0
  6 23  1  0
  7 24  1  0
  9 25  1  0
 11 26  1  0
 13 27  1  0
 16 28  1  0
 17 29  1  0
 20 30  1  0
 20 31  1  0
M  END
>  <Energy>  (207) 
1202.2042923305321

>  <compound_id>  (207) 
14367

>  <target_id>  (207) 
1

>  <reference_id>  (207) 
48

>  <inspiration_ids>  (207) 
[91, 48]

>  <energy_score>  (207) 
1138.90784567386

>  <distance_score>  (207) 
8.175050206336323

>  <path>  (207) 
/opt/xchem-fragalysis-2/maxwin/BulkDock/SCRATCH/511014/C14367-P48/C14367-P48.minimised.mol

>  <scratch_subdir>  (207) 
/opt/xchem-fragalysis-2/maxwin/BulkDock/SCRATCH/511014/C14367-P48

>  <fragmenstein_runtime>  (207) 
9.775442600250244

>  <fragmenstein_outcome>  (207) 
too moved

>  <fragmenstein_mode>  (207) 
expansion

>  <fragmenstein_error>  (207) 


$$$$
C14368-P48
     RDKit          3D

 38 40  0  0  0  0  0  0  0  0999 V2000
   -9.3396   -9.5566    7.3041 O   0  0  0  0  0  0  0  0  0  0  0  0
   -9.6281   -8.9923    8.1851 C   0  0  0  0  0  0  0  0  0  0  0  0
  -10.2794  -10.2390    9.5005 N   0  0  0  0  0  0  0  0  0  0  0  0
  -10.3272  -12.3235    9.5101 C   0  0  0  0  0  0  0  0  0  0  0  0
   -9.7835  -13.9457    8.1667 C   0  0  0  0  0  0  0  0  0  0  0  0
   -8.9440  -13.8131    7.0361 O   0  0  0  0  0  0  0  0  0  0  0  0
  -11.0807  -15.6685    7.4462 C   0  0  0  0  0  0  0  0  0  0  0  0
  -12.1660  -16.4893    8.5176 C   0  0  0  0  0  0  0  0  0  0  0  0
  -12.3822  -17.7761    9.4085 C   0  0  0  0  0  0  0  0  0  0  0  0
  -11.5669  -18.8354    9.0736 C   0  0  0  0  0  0  0  0  0  0  0  0
  -10.6947  -18.6376    8.2375 N   0  0  0  0  0  0  0  0  0  0  0  0
  -11.1800  -17.0852    7.5810 C   0  0  0  0  0  0  0  0  0  0  0  0
   -9.3401   -6.8608    7.7348 C   0  0  0  0  0  0  0  0  0  0  0  0
   -9.3731   -6.0484    6.5044 C   0  0  0  0  0  0  0  0  0  0  0  0
   -8.4620   -4.6673    6.1378 C   0  0  0  0  0  0  0  0  0  0  0  0
   -7.2039   -4.4973    5.5323 C   0  0  0  0  0  0  0  0  0  0  0  0
   -6.5477   -3.2562    5.4155 C   0  0  0  0  0  0  0  0  0  0  0  0
   -5.3509   -3.1995    4.8141 F   0  0  0  0  0  0  0  0  0  0  0  0
   -7.0881   -2.1081    5.9573 C   0  0  0  0  0  0  0  0  0  0  0  0
   -8.2403   -2.2511    6.7011 C   0  0  0  0  0  0  0  0  0  0  0  0
   -8.8086   -3.5304    6.8035 C   0  0  0  0  0  0  0  0  0  0  0  0
   -9.5252   -3.8324    7.8777 O   0  0  0  0  0  0  0  0  0  0  0  0
   -8.9295   -5.0581    8.4524 C   0  0  0  0  0  0  0  0  0  0  0  0
  -10.4700   -9.7198   10.3552 H   0  0  0  0  0  0  0  0  0  0  0  0
   -9.5410  -12.7115   10.2217 H   0  0  0  0  0  0  0  0  0  0  0  0
  -10.8063  -12.5477   10.4795 H   0  0  0  0  0  0  0  0  0  0  0  0
  -10.2390  -13.2772    7.4926 H   0  0  0  0  0  0  0  0  0  0  0  0
   -9.4025  -13.4403    6.2667 H   0  0  0  0  0  0  0  0  0  0  0  0
  -12.7553  -16.0518    9.3081 H   0  0  0  0  0  0  0  0  0  0  0  0
  -13.3222  -17.8675    9.9335 H   0  0  0  0  0  0  0  0  0  0  0  0
  -11.7550  -19.8925    8.9224 H   0  0  0  0  0  0  0  0  0  0  0  0
   -9.8998  -17.8062    8.0903 H   0  0  0  0  0  0  0  0  0  0  0  0
   -9.8991   -6.4096    5.6276 H   0  0  0  0  0  0  0  0  0  0  0  0
   -6.6452   -5.3275    5.1416 H   0  0  0  0  0  0  0  0  0  0  0  0
   -6.5680   -1.1613    5.8838 H   0  0  0  0  0  0  0  0  0  0  0  0
   -8.6258   -1.4347    7.3042 H   0  0  0  0  0  0  0  0  0  0  0  0
   -7.8252   -4.9530    8.4994 H   0  0  0  0  0  0  0  0  0  0  0  0
   -9.3198   -4.9038    9.4579 H   0  0  0  0  0  0  0  0  0  0  0  0
  1  2  2  0
  2  3  1  0
  3  4  1  0
  4  5  1  0
  5  6  1  0
  5  7  1  0
  7  8  2  0
  8  9  1  0
  9 10  2  0
 10 11  1  0
 11 12  2  0
  2 13  1  0
 13 14  2  0
 14 15  1  0
 15 16  2  0
 16 17  1  0
 17 18  1  0
 17 19  2  0
 19 20  1  0
 20 21  2  0
 21 22  1  0
 22 23  1  0
 12  7  1  0
 23 13  1  0
 21 15  1  0
  3 24  1  0
  4 25  1  0
  4 26  1  0
  5 27  1  0
  6 28  1  0
  8 29  1  0
  9 30  1  0
 10 31  1  0
 12 32  1  0
 14 33  1  0
 16 34  1  0
 19 35  1  0
 20 36  1  0
 23 37  1  0
 23 38  1  0
M  END
>  <Energy>  (208) 
1516.5905082963131

>  <compound_id>  (208) 
14368

>  <target_id>  (208) 
1

>  <reference_id>  (208) 
48

>  <inspiration_ids>  (208) 
[91, 48]

>  <energy_score>  (208) 
1453.680875636627

>  <distance_score>  (208) 
6.382186067331337

>  <path>  (208) 
/opt/xchem-fragalysis-2/maxwin/BulkDock/SCRATCH/511014/C14368-P48/C14368-P48.minimised.mol

>  <scratch_subdir>  (208) 
/opt/xchem-fragalysis-2/maxwin/BulkDock/SCRATCH/511014/C14368-P48

>  <fragmenstein_runtime>  (208) 
6.951510429382324

>  <fragmenstein_outcome>  (208) 
too moved

>  <fragmenstein_mode>  (208) 
expansion

>  <fragmenstein_error>  (208) 


$$$$
C14369-P48
     RDKit          3D

 33 35  0  0  0  0  0  0  0  0999 V2000
   -9.2910  -10.6443    7.2900 O   0  0  0  0  0  0  0  0  0  0  0  0
   -9.5433  -10.9218    6.0851 C   0  0  0  0  0  0  0  0  0  0  0  0
   -9.8172  -12.4393    5.9446 O   0  0  0  0  0  0  0  0  0  0  0  0
   -9.6982  -13.8897    7.1741 C   0  0  0  0  0  0  0  0  0  0  0  0
  -10.9929  -15.5510    6.7955 C   0  0  0  0  0  0  0  0  0  0  0  0
  -11.3395  -16.8111    7.5759 C   0  0  0  0  0  0  0  0  0  0  0  0
  -11.9720  -17.7557    8.9952 C   0  0  0  0  0  0  0  0  0  0  0  0
  -12.8512  -17.2219    9.6140 C   0  0  0  0  0  0  0  0  0  0  0  0
  -12.8287  -16.3214    8.6825 N   0  0  0  0  0  0  0  0  0  0  0  0
  -12.2253  -15.6188    7.1115 C   0  0  0  0  0  0  0  0  0  0  0  0
   -9.7183   -9.4964    4.6447 C   0  0  0  0  0  0  0  0  0  0  0  0
   -9.7774   -9.3301    2.9502 C   0  0  0  0  0  0  0  0  0  0  0  0
  -10.0342   -7.9198    2.1394 C   0  0  0  0  0  0  0  0  0  0  0  0
   -9.4313   -7.6489    0.9022 C   0  0  0  0  0  0  0  0  0  0  0  0
   -9.2119   -6.3135    0.5365 C   0  0  0  0  0  0  0  0  0  0  0  0
   -8.3772   -6.0373   -0.4717 F   0  0  0  0  0  0  0  0  0  0  0  0
   -9.7384   -5.2501    1.2605 C   0  0  0  0  0  0  0  0  0  0  0  0
  -10.4485   -5.5209    2.4173 C   0  0  0  0  0  0  0  0  0  0  0  0
  -10.5166   -6.8375    2.8752 C   0  0  0  0  0  0  0  0  0  0  0  0
  -11.0225   -7.0620    4.1037 O   0  0  0  0  0  0  0  0  0  0  0  0
  -10.2093   -7.8499    5.0733 C   0  0  0  0  0  0  0  0  0  0  0  0
   -9.6490  -13.4180    8.1722 H   0  0  0  0  0  0  0  0  0  0  0  0
   -8.7390  -14.0090    6.8248 H   0  0  0  0  0  0  0  0  0  0  0  0
  -10.8475  -17.8208    7.7401 H   0  0  0  0  0  0  0  0  0  0  0  0
  -11.5480  -18.7409    9.1059 H   0  0  0  0  0  0  0  0  0  0  0  0
  -13.6165  -17.6934   10.1604 H   0  0  0  0  0  0  0  0  0  0  0  0
  -12.9831  -14.9960    6.6033 H   0  0  0  0  0  0  0  0  0  0  0  0
   -9.4477  -10.1148    2.2588 H   0  0  0  0  0  0  0  0  0  0  0  0
   -8.9588   -8.4366    0.3229 H   0  0  0  0  0  0  0  0  0  0  0  0
   -9.5696   -4.2302    0.9314 H   0  0  0  0  0  0  0  0  0  0  0  0
  -10.8525   -4.7157    3.0177 H   0  0  0  0  0  0  0  0  0  0  0  0
   -9.7842   -7.0166    5.6565 H   0  0  0  0  0  0  0  0  0  0  0  0
  -10.5658   -8.2259    6.0124 H   0  0  0  0  0  0  0  0  0  0  0  0
  1  2  2  0
  2  3  1  0
  3  4  1  0
  4  5  1  0
  5  6  2  0
  6  7  1  0
  7  8  2  0
  8  9  1  0
  9 10  2  0
  2 11  1  0
 11 12  2  0
 12 13  1  0
 13 14  2  0
 14 15  1  0
 15 16  1  0
 15 17  2  0
 17 18  1  0
 18 19  2  0
 19 20  1  0
 20 21  1  0
 10  5  1  0
 21 11  1  0
 19 13  1  0
  4 22  1  0
  4 23  1  0
  6 24  1  0
  7 25  1  0
  8 26  1  0
 10 27  1  0
 12 28  1  0
 14 29  1  0
 17 30  1  0
 18 31  1  0
 21 32  1  0
 21 33  1  0
M  END
>  <Energy>  (209) 
822.14394198260914

>  <compound_id>  (209) 
14369

>  <target_id>  (209) 
1

>  <reference_id>  (209) 
48

>  <inspiration_ids>  (209) 
[91, 48]

>  <energy_score>  (209) 
781.9088922629124

>  <distance_score>  (209) 
9.322806253387979

>  <path>  (209) 
/opt/xchem-fragalysis-2/maxwin/BulkDock/SCRATCH/511014/C14369-P48/C14369-P48.minimised.mol

>  <scratch_subdir>  (209) 
/opt/xchem-fragalysis-2/maxwin/BulkDock/SCRATCH/511014/C14369-P48

>  <fragmenstein_runtime>  (209) 
10.795034408569336

>  <fragmenstein_outcome>  (209) 
too moved

>  <fragmenstein_mode>  (209) 
expansion

>  <fragmenstein_error>  (209) 


$$$$
C14370-P48
     RDKit          3D

 40 43  0  0  0  0  0  0  0  0999 V2000
   -7.6467  -14.0215   14.9728 O   0  0  0  0  0  0  0  0  0  0  0  0
   -8.7279  -13.5877   15.2445 C   0  0  0  0  0  0  0  0  0  0  0  0
   -9.2665  -12.2551   15.1195 N   0  0  0  0  0  0  0  0  0  0  0  0
   -8.7214  -11.0911   14.5568 N   0  0  0  0  0  0  0  0  0  0  0  0
   -9.1643  -10.7111   13.2808 C   0  0  0  0  0  0  0  0  0  0  0  0
   -9.7976  -11.4903   12.5805 O   0  0  0  0  0  0  0  0  0  0  0  0
   -8.5051   -9.3802   12.7466 C   0  0  0  0  0  0  0  0  0  0  0  0
   -8.4367   -8.9549   11.2476 C   0  0  0  0  0  0  0  0  0  0  0  0
   -7.2829   -8.2331    9.9043 C   0  0  0  0  0  0  0  0  0  0  0  0
   -7.5526   -7.8641    8.5027 C   0  0  0  0  0  0  0  0  0  0  0  0
   -7.7492   -6.0540    7.6728 C   0  0  0  0  0  0  0  0  0  0  0  0
   -7.4088   -5.4602    6.4405 C   0  0  0  0  0  0  0  0  0  0  0  0
   -7.6957   -4.1594    6.0365 C   0  0  0  0  0  0  0  0  0  0  0  0
   -8.2197   -3.3722    6.9887 C   0  0  0  0  0  0  0  0  0  0  0  0
   -8.0614   -3.8585    8.2786 C   0  0  0  0  0  0  0  0  0  0  0  0
   -7.4844   -5.1368    8.5923 C   0  0  0  0  0  0  0  0  0  0  0  0
   -6.6676   -5.7183    9.6387 O   0  0  0  0  0  0  0  0  0  0  0  0
   -6.1683   -7.3300   10.2753 C   0  0  0  0  0  0  0  0  0  0  0  0
   -7.3034   -9.0182   14.1372 S   0  0  0  0  0  0  0  0  0  0  0  0
   -7.6162  -10.4867   15.0690 C   0  0  0  0  0  0  0  0  0  0  0  0
   -6.7098  -10.9829   16.3795 S   0  0  0  0  0  0  0  0  0  0  0  0
   -9.7573  -14.6108   15.7064 C   0  0  0  0  0  0  0  0  0  0  0  0
   -9.6854  -15.9299   15.2389 C   0  0  0  0  0  0  0  0  0  0  0  0
  -10.7591  -16.8018   15.4149 C   0  0  0  0  0  0  0  0  0  0  0  0
  -11.8570  -16.3708   16.1252 C   0  0  0  0  0  0  0  0  0  0  0  0
  -11.9382  -15.1429   16.6618 N   0  0  0  0  0  0  0  0  0  0  0  0
  -10.8889  -14.3042   16.4485 C   0  0  0  0  0  0  0  0  0  0  0  0
  -10.2387  -12.2693   15.3680 H   0  0  0  0  0  0  0  0  0  0  0  0
   -9.4141   -9.1536   10.8139 H   0  0  0  0  0  0  0  0  0  0  0  0
   -8.4903   -8.3832    8.2648 H   0  0  0  0  0  0  0  0  0  0  0  0
   -6.8000   -6.0136    5.7632 H   0  0  0  0  0  0  0  0  0  0  0  0
   -7.5013   -3.8160    5.0296 H   0  0  0  0  0  0  0  0  0  0  0  0
   -8.5554   -2.3602    6.7999 H   0  0  0  0  0  0  0  0  0  0  0  0
   -8.2830   -3.0562    8.9500 H   0  0  0  0  0  0  0  0  0  0  0  0
   -5.1897   -7.7909   10.1858 H   0  0  0  0  0  0  0  0  0  0  0  0
   -5.9442   -7.1689   11.3597 H   0  0  0  0  0  0  0  0  0  0  0  0
   -8.8066  -16.2788   14.7074 H   0  0  0  0  0  0  0  0  0  0  0  0
  -10.7530  -17.7922   14.9932 H   0  0  0  0  0  0  0  0  0  0  0  0
  -12.7149  -17.0122   16.3016 H   0  0  0  0  0  0  0  0  0  0  0  0
  -11.0220  -13.3357   16.9218 H   0  0  0  0  0  0  0  0  0  0  0  0
  1  2  2  0
  2  3  1  0
  3  4  1  0
  4  5  1  0
  5  6  2  0
  5  7  1  0
  7  8  2  3
  8  9  1  0
  9 10  2  0
 10 11  1  0
 11 12  2  0
 12 13  1  0
 13 14  2  0
 14 15  1  0
 15 16  2  0
 16 17  1  0
 17 18  1  0
  7 19  1  0
 19 20  1  0
 20 21  2  0
  2 22  1  0
 22 23  2  0
 23 24  1  0
 24 25  2  0
 25 26  1  0
 26 27  2  0
 20  4  1  0
 27 22  1  0
 18  9  1  0
 16 11  1  0
  3 28  1  0
  8 29  1  0
 10 30  1  0
 12 31  1  0
 13 32  1  0
 14 33  1  0
 15 34  1  0
 18 35  1  0
 18 36  1  0
 23 37  1  0
 24 38  1  0
 25 39  1  0
 27 40  1  0
M  END
>  <Energy>  (210) 
484.96973091491981

>  <compound_id>  (210) 
14370

>  <target_id>  (210) 
1

>  <reference_id>  (210) 
48

>  <inspiration_ids>  (210) 
[91, 48]

>  <energy_score>  (210) 
334.42787467950006

>  <distance_score>  (210) 
10.389136541767327

>  <path>  (210) 
/opt/xchem-fragalysis-2/maxwin/BulkDock/SCRATCH/511014/C14370-P48/C14370-P48.minimised.mol

>  <scratch_subdir>  (210) 
/opt/xchem-fragalysis-2/maxwin/BulkDock/SCRATCH/511014/C14370-P48

>  <fragmenstein_runtime>  (210) 
13.181601762771606

>  <fragmenstein_outcome>  (210) 
too moved

>  <fragmenstein_mode>  (210) 
expansion

>  <fragmenstein_error>  (210) 


$$$$
C14371-P48
     RDKit          3D

 39 41  0  0  0  0  0  0  0  0999 V2000
   -8.6095  -12.5352   13.5376 N   0  0  0  0  0  0  0  0  0  0  0  0
   -9.4032  -12.6019   12.6928 C   0  0  0  0  0  0  0  0  0  0  0  0
  -10.4145  -12.9058   11.7035 C   0  0  0  0  0  0  0  0  0  0  0  0
  -10.4304  -11.9348   10.4179 C   0  0  0  0  0  0  0  0  0  0  0  0
  -10.4118  -10.0274    9.8523 C   0  0  0  0  0  0  0  0  0  0  0  0
   -9.8546   -9.3902    8.3582 C   0  0  0  0  0  0  0  0  0  0  0  0
   -8.3742   -8.0202    8.1253 C   0  0  0  0  0  0  0  0  0  0  0  0
   -7.7210   -6.3032    7.4747 C   0  0  0  0  0  0  0  0  0  0  0  0
   -7.6052   -4.7795    7.0646 C   0  0  0  0  0  0  0  0  0  0  0  0
   -8.4856   -4.0415    7.6607 C   0  0  0  0  0  0  0  0  0  0  0  0
   -9.1019   -5.0432    8.2968 C   0  0  0  0  0  0  0  0  0  0  0  0
   -9.2656   -6.8611    7.8355 C   0  0  0  0  0  0  0  0  0  0  0  0
   -8.4491   -8.2164    9.0567 O   0  0  0  0  0  0  0  0  0  0  0  0
   -9.2934   -8.9136   10.5760 C   0  0  0  0  0  0  0  0  0  0  0  0
  -11.2104  -14.4235   12.6610 C   0  0  0  0  0  0  0  0  0  0  0  0
  -12.2791  -14.2625   13.1446 O   0  0  0  0  0  0  0  0  0  0  0  0
  -10.3435  -15.5156   12.7335 N   0  0  0  0  0  0  0  0  0  0  0  0
  -10.4247  -16.8982   13.5794 C   0  0  0  0  0  0  0  0  0  0  0  0
  -10.3091  -18.5156   13.0603 C   0  0  0  0  0  0  0  0  0  0  0  0
  -10.7506  -19.6319   13.7707 C   0  0  0  0  0  0  0  0  0  0  0  0
  -10.5924  -21.0687   13.4551 C   0  0  0  0  0  0  0  0  0  0  0  0
   -9.8283  -21.4569   12.4020 C   0  0  0  0  0  0  0  0  0  0  0  0
   -9.2131  -20.5059   11.7217 N   0  0  0  0  0  0  0  0  0  0  0  0
   -9.5589  -19.1747   12.0760 C   0  0  0  0  0  0  0  0  0  0  0  0
  -10.4194  -12.5176    9.5132 H   0  0  0  0  0  0  0  0  0  0  0  0
   -9.5106  -10.1981    7.7189 H   0  0  0  0  0  0  0  0  0  0  0  0
   -6.9735   -6.5088    6.5509 H   0  0  0  0  0  0  0  0  0  0  0  0
   -6.7825   -4.4248    6.4573 H   0  0  0  0  0  0  0  0  0  0  0  0
   -8.4914   -2.9885    7.8403 H   0  0  0  0  0  0  0  0  0  0  0  0
   -9.4200   -4.7823    9.3130 H   0  0  0  0  0  0  0  0  0  0  0  0
   -9.0994   -9.2007   11.6482 H   0  0  0  0  0  0  0  0  0  0  0  0
   -8.2197   -8.9963   10.7380 H   0  0  0  0  0  0  0  0  0  0  0  0
   -9.6030  -15.3522   12.1657 H   0  0  0  0  0  0  0  0  0  0  0  0
   -9.5264  -16.7706   14.1963 H   0  0  0  0  0  0  0  0  0  0  0  0
  -11.2287  -16.8045   14.3143 H   0  0  0  0  0  0  0  0  0  0  0  0
  -10.6707  -19.3653   14.8077 H   0  0  0  0  0  0  0  0  0  0  0  0
  -10.7503  -21.8602   14.1684 H   0  0  0  0  0  0  0  0  0  0  0  0
   -9.6272  -22.4906   12.1856 H   0  0  0  0  0  0  0  0  0  0  0  0
   -9.6477  -18.7009   11.1531 H   0  0  0  0  0  0  0  0  0  0  0  0
  1  2  3  0
  2  3  1  0
  3  4  2  3
  4  5  1  0
  5  6  2  0
  6  7  1  0
  7  8  2  0
  8  9  1  0
  9 10  2  0
 10 11  1  0
 11 12  2  0
 12 13  1  0
 13 14  1  0
  3 15  1  0
 15 16  2  0
 15 17  1  0
 17 18  1  0
 18 19  1  0
 19 20  2  0
 20 21  1  0
 21 22  2  0
 22 23  1  0
 23 24  2  0
 14  5  1  0
 24 19  1  0
 12  7  1  0
  4 25  1  0
  6 26  1  0
  8 27  1  0
  9 28  1  0
 10 29  1  0
 11 30  1  0
 14 31  1  0
 14 32  1  0
 17 33  1  0
 18 34  1  0
 18 35  1  0
 20 36  1  0
 21 37  1  0
 22 38  1  0
 24 39  1  0
M  END
>  <Energy>  (211) 
1406.6567305658621

>  <compound_id>  (211) 
14371

>  <target_id>  (211) 
1

>  <reference_id>  (211) 
48

>  <inspiration_ids>  (211) 
[91, 48]

>  <energy_score>  (211) 
1330.1444089080646

>  <distance_score>  (211) 
8.526363027873435

>  <path>  (211) 
/opt/xchem-fragalysis-2/maxwin/BulkDock/SCRATCH/511014/C14371-P48/C14371-P48.minimised.mol

>  <scratch_subdir>  (211) 
/opt/xchem-fragalysis-2/maxwin/BulkDock/SCRATCH/511014/C14371-P48

>  <fragmenstein_runtime>  (211) 
9.961745262145996

>  <fragmenstein_outcome>  (211) 
too moved

>  <fragmenstein_mode>  (211) 
expansion

>  <fragmenstein_error>  (211) 


$$$$
C14370-P48
     RDKit          3D

 40 43  0  0  0  0  0  0  0  0999 V2000
   -7.6467  -14.0215   14.9728 O   0  0  0  0  0  0  0  0  0  0  0  0
   -8.7279  -13.5877   15.2445 C   0  0  0  0  0  0  0  0  0  0  0  0
   -9.2665  -12.2551   15.1195 N   0  0  0  0  0  0  0  0  0  0  0  0
   -8.7214  -11.0911   14.5568 N   0  0  0  0  0  0  0  0  0  0  0  0
   -9.1643  -10.7111   13.2808 C   0  0  0  0  0  0  0  0  0  0  0  0
   -9.7976  -11.4903   12.5805 O   0  0  0  0  0  0  0  0  0  0  0  0
   -8.5051   -9.3802   12.7466 C   0  0  0  0  0  0  0  0  0  0  0  0
   -8.4367   -8.9549   11.2476 C   0  0  0  0  0  0  0  0  0  0  0  0
   -7.2829   -8.2331    9.9043 C   0  0  0  0  0  0  0  0  0  0  0  0
   -7.5526   -7.8641    8.5027 C   0  0  0  0  0  0  0  0  0  0  0  0
   -7.7492   -6.0540    7.6728 C   0  0  0  0  0  0  0  0  0  0  0  0
   -7.4088   -5.4602    6.4405 C   0  0  0  0  0  0  0  0  0  0  0  0
   -7.6957   -4.1594    6.0365 C   0  0  0  0  0  0  0  0  0  0  0  0
   -8.2197   -3.3722    6.9887 C   0  0  0  0  0  0  0  0  0  0  0  0
   -8.0614   -3.8585    8.2786 C   0  0  0  0  0  0  0  0  0  0  0  0
   -7.4844   -5.1368    8.5923 C   0  0  0  0  0  0  0  0  0  0  0  0
   -6.6676   -5.7183    9.6387 O   0  0  0  0  0  0  0  0  0  0  0  0
   -6.1683   -7.3300   10.2753 C   0  0  0  0  0  0  0  0  0  0  0  0
   -7.3034   -9.0182   14.1372 S   0  0  0  0  0  0  0  0  0  0  0  0
   -7.6162  -10.4867   15.0690 C   0  0  0  0  0  0  0  0  0  0  0  0
   -6.7098  -10.9829   16.3795 S   0  0  0  0  0  0  0  0  0  0  0  0
   -9.7573  -14.6108   15.7064 C   0  0  0  0  0  0  0  0  0  0  0  0
   -9.6854  -15.9299   15.2389 C   0  0  0  0  0  0  0  0  0  0  0  0
  -10.7591  -16.8018   15.4149 C   0  0  0  0  0  0  0  0  0  0  0  0
  -11.8570  -16.3708   16.1252 C   0  0  0  0  0  0  0  0  0  0  0  0
  -11.9382  -15.1429   16.6618 N   0  0  0  0  0  0  0  0  0  0  0  0
  -10.8889  -14.3042   16.4485 C   0  0  0  0  0  0  0  0  0  0  0  0
  -10.2387  -12.2693   15.3680 H   0  0  0  0  0  0  0  0  0  0  0  0
   -9.4141   -9.1536   10.8139 H   0  0  0  0  0  0  0  0  0  0  0  0
   -8.4903   -8.3832    8.2648 H   0  0  0  0  0  0  0  0  0  0  0  0
   -6.8000   -6.0136    5.7632 H   0  0  0  0  0  0  0  0  0  0  0  0
   -7.5013   -3.8160    5.0296 H   0  0  0  0  0  0  0  0  0  0  0  0
   -8.5554   -2.3602    6.7999 H   0  0  0  0  0  0  0  0  0  0  0  0
   -8.2830   -3.0562    8.9500 H   0  0  0  0  0  0  0  0  0  0  0  0
   -5.1897   -7.7909   10.1858 H   0  0  0  0  0  0  0  0  0  0  0  0
   -5.9442   -7.1689   11.3597 H   0  0  0  0  0  0  0  0  0  0  0  0
   -8.8066  -16.2788   14.7074 H   0  0  0  0  0  0  0  0  0  0  0  0
  -10.7530  -17.7922   14.9932 H   0  0  0  0  0  0  0  0  0  0  0  0
  -12.7149  -17.0122   16.3016 H   0  0  0  0  0  0  0  0  0  0  0  0
  -11.0220  -13.3357   16.9218 H   0  0  0  0  0  0  0  0  0  0  0  0
  1  2  2  0
  2  3  1  0
  3  4  1  0
  4  5  1  0
  5  6  2  0
  5  7  1  0
  7  8  2  3
  8  9  1  0
  9 10  2  0
 10 11  1  0
 11 12  2  0
 12 13  1  0
 13 14  2  0
 14 15  1  0
 15 16  2  0
 16 17  1  0
 17 18  1  0
  7 19  1  0
 19 20  1  0
 20 21  2  0
  2 22  1  0
 22 23  2  0
 23 24  1  0
 24 25  2  0
 25 26  1  0
 26 27  2  0
 20  4  1  0
 27 22  1  0
 18  9  1  0
 16 11  1  0
  3 28  1  0
  8 29  1  0
 10 30  1  0
 12 31  1  0
 13 32  1  0
 14 33  1  0
 15 34  1  0
 18 35  1  0
 18 36  1  0
 23 37  1  0
 24 38  1  0
 25 39  1  0
 27 40  1  0
M  END
>  <Energy>  (212) 
484.96973091491981

>  <compound_id>  (212) 
14370

>  <target_id>  (212) 
1

>  <reference_id>  (212) 
48

>  <inspiration_ids>  (212) 
[91, 48]

>  <energy_score>  (212) 
334.42787467950006

>  <distance_score>  (212) 
10.389136541767327

>  <path>  (212) 
/opt/xchem-fragalysis-2/maxwin/BulkDock/SCRATCH/511014/C14370-P48/C14370-P48.minimised.mol

>  <scratch_subdir>  (212) 
/opt/xchem-fragalysis-2/maxwin/BulkDock/SCRATCH/511014/C14370-P48

>  <fragmenstein_runtime>  (212) 
13.107751607894897

>  <fragmenstein_outcome>  (212) 
too moved

>  <fragmenstein_mode>  (212) 
expansion

>  <fragmenstein_error>  (212) 


$$$$
C14373-P48
     RDKit          3D

 49 54  0  0  0  0  0  0  0  0999 V2000
  -10.1459   -8.8335   14.4338 O   0  0  0  0  0  0  0  0  0  0  0  0
   -9.1171   -9.1769   13.9422 C   0  0  0  0  0  0  0  0  0  0  0  0
   -8.4214   -8.8654   12.7363 C   0  0  0  0  0  0  0  0  0  0  0  0
   -9.3624   -8.4309   11.2856 C   0  0  0  0  0  0  0  0  0  0  0  0
   -9.9815   -6.0581   11.2512 C   0  0  0  0  0  0  0  0  0  0  0  0
   -9.5676   -4.9566   10.1686 C   0  0  0  0  0  0  0  0  0  0  0  0
   -8.9798   -4.1613    8.8959 C   0  0  0  0  0  0  0  0  0  0  0  0
   -8.4046   -4.2858    7.6500 C   0  0  0  0  0  0  0  0  0  0  0  0
   -8.2085   -3.1043    6.8919 C   0  0  0  0  0  0  0  0  0  0  0  0
   -8.6209   -1.8176    7.3508 C   0  0  0  0  0  0  0  0  0  0  0  0
   -9.2297   -1.6583    8.5925 C   0  0  0  0  0  0  0  0  0  0  0  0
   -9.2975   -2.8484    9.3040 C   0  0  0  0  0  0  0  0  0  0  0  0
  -10.0546   -3.0655   10.8958 O   0  0  0  0  0  0  0  0  0  0  0  0
   -9.5312   -4.5888   11.9161 C   0  0  0  0  0  0  0  0  0  0  0  0
  -10.0103  -10.3807   12.1148 C   0  0  0  0  0  0  0  0  0  0  0  0
   -9.3269  -10.8737   13.4879 C   0  0  0  0  0  0  0  0  0  0  0  0
   -9.1294  -12.1325   14.2586 C   0  0  0  0  0  0  0  0  0  0  0  0
   -9.2148  -13.4639   13.9932 C   0  0  0  0  0  0  0  0  0  0  0  0
   -9.7754  -13.7395   12.8551 C   0  0  0  0  0  0  0  0  0  0  0  0
  -10.0810  -12.3546   11.8974 C   0  0  0  0  0  0  0  0  0  0  0  0
  -11.1774  -13.9163   11.7291 O   0  0  0  0  0  0  0  0  0  0  0  0
  -11.0533  -15.8812   11.9330 C   0  0  0  0  0  0  0  0  0  0  0  0
  -11.4246  -17.0494   10.4604 C   0  0  0  0  0  0  0  0  0  0  0  0
  -11.0382  -18.6080    9.1044 C   0  0  0  0  0  0  0  0  0  0  0  0
  -11.1662  -20.0927    8.4681 C   0  0  0  0  0  0  0  0  0  0  0  0
  -10.8052  -20.8541    7.2085 C   0  0  0  0  0  0  0  0  0  0  0  0
  -10.0524  -20.2502    6.2761 C   0  0  0  0  0  0  0  0  0  0  0  0
   -9.4858  -19.1444    6.6910 N   0  0  0  0  0  0  0  0  0  0  0  0
   -9.9206  -18.5694    7.9676 C   0  0  0  0  0  0  0  0  0  0  0  0
  -10.2101  -15.5343   12.9741 C   0  0  0  0  0  0  0  0  0  0  0  0
   -9.7810  -16.5533   13.4872 O   0  0  0  0  0  0  0  0  0  0  0  0
   -8.4404  -10.1831   14.3122 O   0  0  0  0  0  0  0  0  0  0  0  0
   -7.4900   -8.4263   13.0357 H   0  0  0  0  0  0  0  0  0  0  0  0
   -8.2417   -9.7556   12.3088 H   0  0  0  0  0  0  0  0  0  0  0  0
   -8.5867   -8.7126   10.5453 H   0  0  0  0  0  0  0  0  0  0  0  0
  -10.1662   -5.3042    9.4037 H   0  0  0  0  0  0  0  0  0  0  0  0
   -8.1306   -5.2390    7.2240 H   0  0  0  0  0  0  0  0  0  0  0  0
   -7.7558   -3.1870    5.9049 H   0  0  0  0  0  0  0  0  0  0  0  0
   -8.4732   -0.9522    6.7098 H   0  0  0  0  0  0  0  0  0  0  0  0
   -9.5846   -0.7208    8.9889 H   0  0  0  0  0  0  0  0  0  0  0  0
   -9.8278   -4.4421   12.9728 H   0  0  0  0  0  0  0  0  0  0  0  0
   -8.4580   -4.5815   12.1142 H   0  0  0  0  0  0  0  0  0  0  0  0
   -8.7915  -11.9672   15.2732 H   0  0  0  0  0  0  0  0  0  0  0  0
   -8.9048  -14.2430   14.6473 H   0  0  0  0  0  0  0  0  0  0  0  0
  -10.4269  -17.7959   10.4012 H   0  0  0  0  0  0  0  0  0  0  0  0
  -11.7104  -20.9142    8.9128 H   0  0  0  0  0  0  0  0  0  0  0  0
  -11.1748  -21.8660    7.0614 H   0  0  0  0  0  0  0  0  0  0  0  0
   -9.7846  -20.6598    5.3150 H   0  0  0  0  0  0  0  0  0  0  0  0
   -8.9795  -18.0819    8.1403 H   0  0  0  0  0  0  0  0  0  0  0  0
  1  2  2  0
  2  3  1  0
  3  4  1  0
  4  5  1  0
  5  6  2  0
  6  7  1  0
  7  8  2  0
  8  9  1  0
  9 10  2  0
 10 11  1  0
 11 12  2  0
 12 13  1  0
 13 14  1  0
  4 15  1  0
 15 16  2  0
 16 17  1  0
 17 18  2  0
 18 19  1  0
 19 20  2  0
 20 21  1  0
 21 22  1  0
 22 23  2  3
 23 24  1  0
 24 25  2  0
 25 26  1  0
 26 27  2  0
 27 28  1  0
 28 29  2  0
 22 30  1  0
 30 31  2  0
 16 32  1  0
 32  2  1  0
 14  5  1  0
 20 15  1  0
 29 24  1  0
 12  7  1  0
 30 19  1  0
  3 33  1  0
  3 34  1  0
  4 35  1  0
  6 36  1  0
  8 37  1  0
  9 38  1  0
 10 39  1  0
 11 40  1  0
 14 41  1  0
 14 42  1  0
 17 43  1  0
 18 44  1  0
 23 45  1  0
 25 46  1  0
 26 47  1  0
 27 48  1  0
 29 49  1  0
M  END
>  <Energy>  (213) 
2363.2211950111091

>  <compound_id>  (213) 
14373

>  <target_id>  (213) 
1

>  <reference_id>  (213) 
48

>  <inspiration_ids>  (213) 
[91, 48]

>  <energy_score>  (213) 
2215.0845490489774

>  <distance_score>  (213) 
6.838356552433356

>  <path>  (213) 
/opt/xchem-fragalysis-2/maxwin/BulkDock/SCRATCH/511014/C14373-P48/C14373-P48.minimised.mol

>  <scratch_subdir>  (213) 
/opt/xchem-fragalysis-2/maxwin/BulkDock/SCRATCH/511014/C14373-P48

>  <fragmenstein_runtime>  (213) 
16.445108652114868

>  <fragmenstein_outcome>  (213) 
too moved

>  <fragmenstein_mode>  (213) 
expansion

>  <fragmenstein_error>  (213) 


$$$$
C14374-P48
     RDKit          3D

 34 36  0  0  0  0  0  0  0  0999 V2000
  -13.5927   -8.6703    9.0107 O   0  0  0  0  0  0  0  0  0  0  0  0
  -14.1865   -9.5673    8.5138 C   0  0  0  0  0  0  0  0  0  0  0  0
  -14.3516  -10.9760    8.9695 N   0  0  0  0  0  0  0  0  0  0  0  0
  -13.6655  -11.8043   10.2782 S   0  0  0  0  0  0  0  0  0  0  0  0
  -12.5255  -11.0724    9.7620 O   0  0  0  0  0  0  0  0  0  0  0  0
  -15.0340  -11.4253   10.6050 O   0  0  0  0  0  0  0  0  0  0  0  0
  -13.0643  -14.2070   10.8638 C   0  0  0  0  0  0  0  0  0  0  0  0
  -12.1620  -14.3288   12.4116 C   0  0  0  0  0  0  0  0  0  0  0  0
  -11.1320  -15.2424   12.8102 C   0  0  0  0  0  0  0  0  0  0  0  0
  -11.2922  -16.3851   11.9120 C   0  0  0  0  0  0  0  0  0  0  0  0
  -12.1217  -16.9785   10.4308 N   0  0  0  0  0  0  0  0  0  0  0  0
  -12.8434  -15.8979    9.7074 C   0  0  0  0  0  0  0  0  0  0  0  0
  -14.7715   -9.1037    7.0704 C   0  0  0  0  0  0  0  0  0  0  0  0
  -14.6548   -9.5540    5.7986 C   0  0  0  0  0  0  0  0  0  0  0  0
  -14.7370   -8.5220    4.7032 C   0  0  0  0  0  0  0  0  0  0  0  0
  -14.0858   -8.6513    3.4791 C   0  0  0  0  0  0  0  0  0  0  0  0
  -13.7690   -7.5102    2.7092 C   0  0  0  0  0  0  0  0  0  0  0  0
  -12.5371   -7.5825    1.4961 Cl  0  0  0  0  0  0  0  0  0  0  0  0
  -14.3532   -6.2824    2.9803 C   0  0  0  0  0  0  0  0  0  0  0  0
  -15.2231   -6.1963    4.0531 C   0  0  0  0  0  0  0  0  0  0  0  0
  -15.3224   -7.2815    4.9380 C   0  0  0  0  0  0  0  0  0  0  0  0
  -15.9783   -7.0549    6.1014 O   0  0  0  0  0  0  0  0  0  0  0  0
  -15.2946   -7.6666    7.2032 C   0  0  0  0  0  0  0  0  0  0  0  0
  -14.9741  -11.4404    8.3680 H   0  0  0  0  0  0  0  0  0  0  0  0
  -12.6143  -13.9510   13.3209 H   0  0  0  0  0  0  0  0  0  0  0  0
  -10.5813  -15.2668   13.7319 H   0  0  0  0  0  0  0  0  0  0  0  0
  -12.3867  -16.0505   11.8156 H   0  0  0  0  0  0  0  0  0  0  0  0
  -12.8803  -16.5417    8.8545 H   0  0  0  0  0  0  0  0  0  0  0  0
  -14.2359  -10.5197    5.5431 H   0  0  0  0  0  0  0  0  0  0  0  0
  -13.6937   -9.6211    3.1869 H   0  0  0  0  0  0  0  0  0  0  0  0
  -14.1340   -5.4079    2.3758 H   0  0  0  0  0  0  0  0  0  0  0  0
  -15.7162   -5.2558    4.2842 H   0  0  0  0  0  0  0  0  0  0  0  0
  -14.4933   -7.0174    7.5004 H   0  0  0  0  0  0  0  0  0  0  0  0
  -16.0485   -7.6050    7.9677 H   0  0  0  0  0  0  0  0  0  0  0  0
  1  2  2  0
  2  3  1  0
  3  4  1  0
  4  5  2  0
  4  6  2  0
  4  7  1  0
  7  8  2  0
  8  9  1  0
  9 10  2  0
 10 11  1  0
 11 12  2  0
  2 13  1  0
 13 14  2  0
 14 15  1  0
 15 16  2  0
 16 17  1  0
 17 18  1  0
 17 19  2  0
 19 20  1  0
 20 21  2  0
 21 22  1  0
 22 23  1  0
 12  7  1  0
 23 13  1  0
 21 15  1  0
  3 24  1  0
  8 25  1  0
  9 26  1  0
 10 27  1  0
 12 28  1  0
 14 29  1  0
 16 30  1  0
 19 31  1  0
 20 32  1  0
 23 33  1  0
 23 34  1  0
M  END
>  <Energy>  (214) 
672.64483387929317

>  <compound_id>  (214) 
14374

>  <target_id>  (214) 
1

>  <reference_id>  (214) 
48

>  <inspiration_ids>  (214) 
[91, 48]

>  <energy_score>  (214) 
726.5167575062109

>  <distance_score>  (214) 
11.39343708543127

>  <path>  (214) 
/opt/xchem-fragalysis-2/maxwin/BulkDock/SCRATCH/511014/C14374-P48/C14374-P48.minimised.mol

>  <scratch_subdir>  (214) 
/opt/xchem-fragalysis-2/maxwin/BulkDock/SCRATCH/511014/C14374-P48

>  <fragmenstein_runtime>  (214) 
10.072920322418213

>  <fragmenstein_outcome>  (214) 
too moved

>  <fragmenstein_mode>  (214) 
expansion

>  <fragmenstein_error>  (214) 


$$$$
C14375-P48
     RDKit          3D

 34 36  0  0  0  0  0  0  0  0999 V2000
  -14.7600  -10.1101    9.7078 O   0  0  0  0  0  0  0  0  0  0  0  0
  -13.6079   -9.8996    9.6660 C   0  0  0  0  0  0  0  0  0  0  0  0
  -12.3590  -11.3953   10.0291 N   0  0  0  0  0  0  0  0  0  0  0  0
  -12.6530  -13.7914   10.8358 S   0  0  0  0  0  0  0  0  0  0  0  0
  -11.2600  -13.6550   11.5449 O   0  0  0  0  0  0  0  0  0  0  0  0
  -13.7164  -14.1814   11.5347 O   0  0  0  0  0  0  0  0  0  0  0  0
  -12.7240  -16.1001    9.6298 C   0  0  0  0  0  0  0  0  0  0  0  0
  -13.3008  -17.3228    9.6818 C   0  0  0  0  0  0  0  0  0  0  0  0
  -12.6462  -18.5719    9.3973 C   0  0  0  0  0  0  0  0  0  0  0  0
  -11.3546  -18.8559    8.9435 C   0  0  0  0  0  0  0  0  0  0  0  0
  -10.8655  -18.2535    9.8772 N   0  0  0  0  0  0  0  0  0  0  0  0
  -11.8331  -16.9916   10.2930 C   0  0  0  0  0  0  0  0  0  0  0  0
  -13.2666   -7.8457    9.4426 C   0  0  0  0  0  0  0  0  0  0  0  0
  -12.1928   -6.6381   10.2185 C   0  0  0  0  0  0  0  0  0  0  0  0
  -10.6534   -5.2667    9.4516 C   0  0  0  0  0  0  0  0  0  0  0  0
   -9.2327   -4.6540    9.0229 C   0  0  0  0  0  0  0  0  0  0  0  0
   -9.0481   -3.6044    7.8846 C   0  0  0  0  0  0  0  0  0  0  0  0
   -7.3313   -3.5063    6.9860 Br  0  0  0  0  0  0  0  0  0  0  0  0
  -10.0394   -2.7748    7.1766 C   0  0  0  0  0  0  0  0  0  0  0  0
  -11.4185   -2.9527    7.2952 C   0  0  0  0  0  0  0  0  0  0  0  0
  -11.6931   -4.1708    7.9925 C   0  0  0  0  0  0  0  0  0  0  0  0
  -13.5750   -4.5758    8.2651 O   0  0  0  0  0  0  0  0  0  0  0  0
  -14.0180   -6.5073    8.1432 C   0  0  0  0  0  0  0  0  0  0  0  0
  -11.3968  -11.0780    9.8737 H   0  0  0  0  0  0  0  0  0  0  0  0
  -14.2483  -17.7012   10.0563 H   0  0  0  0  0  0  0  0  0  0  0  0
  -13.3556  -19.3243    9.7483 H   0  0  0  0  0  0  0  0  0  0  0  0
  -10.8563  -19.6955    8.4771 H   0  0  0  0  0  0  0  0  0  0  0  0
  -11.6033  -16.6898   11.3682 H   0  0  0  0  0  0  0  0  0  0  0  0
  -12.6455   -6.2507   11.1450 H   0  0  0  0  0  0  0  0  0  0  0  0
   -8.2444   -4.9296    9.3612 H   0  0  0  0  0  0  0  0  0  0  0  0
   -9.6782   -1.9919    6.5102 H   0  0  0  0  0  0  0  0  0  0  0  0
  -12.1630   -2.2812    6.8986 H   0  0  0  0  0  0  0  0  0  0  0  0
  -15.1083   -6.2203    8.0775 H   0  0  0  0  0  0  0  0  0  0  0  0
  -14.1078   -7.0998    7.1945 H   0  0  0  0  0  0  0  0  0  0  0  0
  1  2  2  0
  2  3  1  0
  3  4  1  0
  4  5  2  0
  4  6  2  0
  4  7  1  0
  7  8  2  0
  8  9  1  0
  9 10  2  0
 10 11  1  0
 11 12  2  0
  2 13  1  0
 13 14  2  0
 14 15  1  0
 15 16  2  0
 16 17  1  0
 17 18  1  0
 17 19  2  0
 19 20  1  0
 20 21  2  0
 21 22  1  0
 22 23  1  0
 12  7  1  0
 23 13  1  0
 21 15  1  0
  3 24  1  0
  8 25  1  0
  9 26  1  0
 10 27  1  0
 12 28  1  0
 14 29  1  0
 16 30  1  0
 19 31  1  0
 20 32  1  0
 23 33  1  0
 23 34  1  0
M  END
>  <Energy>  (215) 
1646.6563205545087

>  <compound_id>  (215) 
14375

>  <target_id>  (215) 
1

>  <reference_id>  (215) 
48

>  <inspiration_ids>  (215) 
[91, 48]

>  <energy_score>  (215) 
1701.1677644615202

>  <distance_score>  (215) 
7.559691468381733

>  <path>  (215) 
/opt/xchem-fragalysis-2/maxwin/BulkDock/SCRATCH/511014/C14375-P48/C14375-P48.minimised.mol

>  <scratch_subdir>  (215) 
/opt/xchem-fragalysis-2/maxwin/BulkDock/SCRATCH/511014/C14375-P48

>  <fragmenstein_runtime>  (215) 
8.456723928451538

>  <fragmenstein_outcome>  (215) 
too moved

>  <fragmenstein_mode>  (215) 
expansion

>  <fragmenstein_error>  (215) 


$$$$
C14376-P48
     RDKit          3D

 38 40  0  0  0  0  0  0  0  0999 V2000
   -7.3059   -4.2547    1.3956 C   0  0  0  0  0  0  0  0  0  0  0  0
   -8.0667   -4.2602    2.6046 O   0  0  0  0  0  0  0  0  0  0  0  0
   -9.4017   -4.0932    2.3188 C   0  0  0  0  0  0  0  0  0  0  0  0
   -9.9102   -2.8000    2.3437 C   0  0  0  0  0  0  0  0  0  0  0  0
  -11.2658   -2.6054    2.0857 C   0  0  0  0  0  0  0  0  0  0  0  0
  -12.1264   -3.7045    1.8929 C   0  0  0  0  0  0  0  0  0  0  0  0
  -11.6390   -5.0160    1.9217 C   0  0  0  0  0  0  0  0  0  0  0  0
  -10.2558   -5.1899    2.0695 C   0  0  0  0  0  0  0  0  0  0  0  0
   -9.7150   -6.4484    1.9796 O   0  0  0  0  0  0  0  0  0  0  0  0
  -10.4849   -7.3593    1.1514 C   0  0  0  0  0  0  0  0  0  0  0  0
  -11.9764   -7.3728    1.4334 C   0  0  0  0  0  0  0  0  0  0  0  0
  -12.6939   -8.7137    1.1066 C   0  0  0  0  0  0  0  0  0  0  0  0
  -12.4205   -9.1881    0.0373 O   0  0  0  0  0  0  0  0  0  0  0  0
  -13.6057   -9.2002    2.1744 N   0  0  0  0  0  0  0  0  0  0  0  0
  -14.6524  -10.5154    2.2143 S   0  0  0  0  0  0  0  0  0  0  0  0
  -15.0233  -10.8154    0.8475 O   0  0  0  0  0  0  0  0  0  0  0  0
  -15.6869  -10.0885    3.1450 O   0  0  0  0  0  0  0  0  0  0  0  0
  -14.0230  -12.0694    2.9222 C   0  0  0  0  0  0  0  0  0  0  0  0
  -14.3064  -12.4345    4.2517 C   0  0  0  0  0  0  0  0  0  0  0  0
  -14.1229  -13.7584    4.6943 C   0  0  0  0  0  0  0  0  0  0  0  0
  -13.6641  -14.6975    3.7920 C   0  0  0  0  0  0  0  0  0  0  0  0
  -13.3888  -14.3900    2.5045 N   0  0  0  0  0  0  0  0  0  0  0  0
  -13.6036  -13.0988    2.0911 C   0  0  0  0  0  0  0  0  0  0  0  0
  -12.5302   -6.2056    1.8170 C   0  0  0  0  0  0  0  0  0  0  0  0
   -6.2535   -4.3897    1.6629 H   0  0  0  0  0  0  0  0  0  0  0  0
   -7.5967   -5.0810    0.7380 H   0  0  0  0  0  0  0  0  0  0  0  0
   -7.4030   -3.2976    0.8715 H   0  0  0  0  0  0  0  0  0  0  0  0
   -9.2587   -1.9554    2.5459 H   0  0  0  0  0  0  0  0  0  0  0  0
  -11.6724   -1.5965    2.0697 H   0  0  0  0  0  0  0  0  0  0  0  0
  -13.1884   -3.5205    1.7464 H   0  0  0  0  0  0  0  0  0  0  0  0
  -10.0690   -8.3567    1.3270 H   0  0  0  0  0  0  0  0  0  0  0  0
  -10.2973   -7.1158    0.0978 H   0  0  0  0  0  0  0  0  0  0  0  0
  -13.5319   -8.5865    2.9831 H   0  0  0  0  0  0  0  0  0  0  0  0
  -14.7148  -11.6985    4.9402 H   0  0  0  0  0  0  0  0  0  0  0  0
  -14.3581  -14.0474    5.7130 H   0  0  0  0  0  0  0  0  0  0  0  0
  -13.5033  -15.7335    4.0787 H   0  0  0  0  0  0  0  0  0  0  0  0
  -13.4455  -12.9374    1.0268 H   0  0  0  0  0  0  0  0  0  0  0  0
  -13.5940   -6.0768    1.9773 H   0  0  0  0  0  0  0  0  0  0  0  0
  1  2  1  0
  2  3  1  0
  3  4  2  0
  4  5  1  0
  5  6  2  0
  6  7  1  0
  7  8  2  0
  8  9  1  0
  9 10  1  0
 10 11  1  0
 11 12  1  0
 12 13  2  0
 12 14  1  0
 14 15  1  0
 15 16  2  0
 15 17  2  0
 15 18  1  0
 18 19  2  0
 19 20  1  0
 20 21  2  0
 21 22  1  0
 22 23  2  0
 11 24  2  0
  8  3  1  0
 23 18  1  0
 24  7  1  0
  1 25  1  0
  1 26  1  0
  1 27  1  0
  4 28  1  0
  5 29  1  0
  6 30  1  0
 10 31  1  0
 10 32  1  0
 14 33  1  0
 19 34  1  0
 20 35  1  0
 21 36  1  0
 23 37  1  0
 24 38  1  0
M  END
>  <Energy>  (216) 
-35.552495588115015

>  <compound_id>  (216) 
14376

>  <target_id>  (216) 
1

>  <reference_id>  (216) 
48

>  <inspiration_ids>  (216) 
[91, 48]

>  <energy_score>  (216) 
-8.28062766158372

>  <distance_score>  (216) 
10.905760932942366

>  <path>  (216) 
/opt/xchem-fragalysis-2/maxwin/BulkDock/SCRATCH/511014/C14376-P48/C14376-P48.minimised.mol

>  <scratch_subdir>  (216) 
/opt/xchem-fragalysis-2/maxwin/BulkDock/SCRATCH/511014/C14376-P48

>  <fragmenstein_runtime>  (216) 
10.940663576126099

>  <fragmenstein_outcome>  (216) 
too moved

>  <fragmenstein_mode>  (216) 
expansion

>  <fragmenstein_error>  (216) 


$$$$
C14377-P48
     RDKit          3D

 41 43  0  0  0  0  0  0  0  0999 V2000
   -7.6167   -2.1677    5.1418 C   0  0  0  0  0  0  0  0  0  0  0  0
   -8.7503   -2.4383    6.1151 C   0  0  0  0  0  0  0  0  0  0  0  0
   -8.6407   -3.7556    6.6459 O   0  0  0  0  0  0  0  0  0  0  0  0
   -9.3528   -4.7590    6.0478 C   0  0  0  0  0  0  0  0  0  0  0  0
   -9.9416   -4.7327    4.8057 C   0  0  0  0  0  0  0  0  0  0  0  0
  -10.4941   -5.9281    4.2889 C   0  0  0  0  0  0  0  0  0  0  0  0
  -10.2613   -7.2015    5.0021 C   0  0  0  0  0  0  0  0  0  0  0  0
   -9.9125   -7.4759    6.4239 C   0  0  0  0  0  0  0  0  0  0  0  0
   -9.3416   -6.0159    6.7613 C   0  0  0  0  0  0  0  0  0  0  0  0
   -9.5321   -9.2317    7.3968 C   0  0  0  0  0  0  0  0  0  0  0  0
   -9.3993  -10.8201    6.6136 C   0  0  0  0  0  0  0  0  0  0  0  0
  -10.1913  -12.7256    6.5919 C   0  0  0  0  0  0  0  0  0  0  0  0
  -11.2174  -12.6798    6.1569 O   0  0  0  0  0  0  0  0  0  0  0  0
   -9.8849  -14.3974    7.2072 N   0  0  0  0  0  0  0  0  0  0  0  0
  -11.2645  -16.4046    7.2056 S   0  0  0  0  0  0  0  0  0  0  0  0
  -12.2403  -16.3133    8.2546 O   0  0  0  0  0  0  0  0  0  0  0  0
  -11.6651  -16.4692    5.7876 O   0  0  0  0  0  0  0  0  0  0  0  0
  -10.2867  -18.6515    7.8185 C   0  0  0  0  0  0  0  0  0  0  0  0
  -10.6974  -19.7750    8.4376 C   0  0  0  0  0  0  0  0  0  0  0  0
  -11.1230  -21.0837    7.8419 C   0  0  0  0  0  0  0  0  0  0  0  0
  -10.7786  -21.5046    6.5827 C   0  0  0  0  0  0  0  0  0  0  0  0
  -10.0030  -20.7320    5.8629 N   0  0  0  0  0  0  0  0  0  0  0  0
   -9.8594  -19.4615    6.3904 C   0  0  0  0  0  0  0  0  0  0  0  0
   -9.6605   -9.7551    4.9768 C   0  0  0  0  0  0  0  0  0  0  0  0
  -10.0233   -8.2549    4.1765 O   0  0  0  0  0  0  0  0  0  0  0  0
   -7.6566   -1.1371    4.7779 H   0  0  0  0  0  0  0  0  0  0  0  0
   -6.6485   -2.3324    5.6266 H   0  0  0  0  0  0  0  0  0  0  0  0
   -7.6587   -2.8438    4.2826 H   0  0  0  0  0  0  0  0  0  0  0  0
   -8.6523   -1.7512    6.9633 H   0  0  0  0  0  0  0  0  0  0  0  0
   -9.7328   -2.2365    5.6745 H   0  0  0  0  0  0  0  0  0  0  0  0
   -9.9036   -3.8636    4.1606 H   0  0  0  0  0  0  0  0  0  0  0  0
  -10.8374   -5.9636    3.2594 H   0  0  0  0  0  0  0  0  0  0  0  0
   -8.6743   -5.8472    7.5834 H   0  0  0  0  0  0  0  0  0  0  0  0
   -9.9761   -9.3339    8.3789 H   0  0  0  0  0  0  0  0  0  0  0  0
   -9.0230  -14.4200    7.4738 H   0  0  0  0  0  0  0  0  0  0  0  0
   -9.7442  -20.1024    8.9474 H   0  0  0  0  0  0  0  0  0  0  0  0
  -11.5590  -21.8377    8.4857 H   0  0  0  0  0  0  0  0  0  0  0  0
  -11.0074  -22.4938    6.2078 H   0  0  0  0  0  0  0  0  0  0  0  0
   -9.4597  -18.8937    5.5310 H   0  0  0  0  0  0  0  0  0  0  0  0
  -10.3662   -9.1782    5.3850 H   0  0  0  0  0  0  0  0  0  0  0  0
   -9.5484  -10.4598    4.1539 H   0  0  0  0  0  0  0  0  0  0  0  0
  1  2  1  0
  2  3  1  0
  3  4  1  0
  4  5  2  0
  5  6  1  0
  6  7  2  0
  7  8  1  0
  8  9  2  0
  8 10  1  0
 10 11  2  0
 11 12  1  0
 12 13  2  0
 12 14  1  0
 14 15  1  0
 15 16  2  0
 15 17  2  0
 15 18  1  0
 18 19  2  0
 19 20  1  0
 20 21  2  0
 21 22  1  0
 22 23  2  0
 11 24  1  0
 24 25  1  0
  9  4  1  0
 23 18  1  0
 25  7  1  0
  1 26  1  0
  1 27  1  0
  1 28  1  0
  2 29  1  0
  2 30  1  0
  5 31  1  0
  6 32  1  0
  9 33  1  0
 10 34  1  0
 14 35  1  0
 19 36  1  0
 20 37  1  0
 21 38  1  0
 23 39  1  0
 24 40  1  0
 24 41  1  0
M  END
>  <Energy>  (217) 
961.94054572065102

>  <compound_id>  (217) 
14377

>  <target_id>  (217) 
1

>  <reference_id>  (217) 
48

>  <inspiration_ids>  (217) 
[91, 48]

>  <energy_score>  (217) 
989.0869807931654

>  <distance_score>  (217) 
7.789103741170284

>  <path>  (217) 
/opt/xchem-fragalysis-2/maxwin/BulkDock/SCRATCH/511014/C14377-P48/C14377-P48.minimised.mol

>  <scratch_subdir>  (217) 
/opt/xchem-fragalysis-2/maxwin/BulkDock/SCRATCH/511014/C14377-P48

>  <fragmenstein_runtime>  (217) 
12.78252911567688

>  <fragmenstein_outcome>  (217) 
too moved

>  <fragmenstein_mode>  (217) 
expansion

>  <fragmenstein_error>  (217) 


$$$$
C14378-P48
     RDKit          3D

 40 42  0  0  0  0  0  0  0  0999 V2000
   -9.3977  -13.3854    9.2247 C   0  0  0  0  0  0  0  0  0  0  0  0
   -9.2450  -14.0673    7.6830 C   0  0  0  0  0  0  0  0  0  0  0  0
   -7.2460  -14.9233    7.7342 C   0  0  0  0  0  0  0  0  0  0  0  0
  -10.3539  -13.3529    7.2463 N   0  0  0  0  0  0  0  0  0  0  0  0
   -9.7387  -11.8190    6.2549 C   0  0  0  0  0  0  0  0  0  0  0  0
   -9.6112  -11.9798    5.0293 O   0  0  0  0  0  0  0  0  0  0  0  0
   -9.4939   -9.9207    7.2490 C   0  0  0  0  0  0  0  0  0  0  0  0
   -9.9416   -8.4046    6.3422 C   0  0  0  0  0  0  0  0  0  0  0  0
   -9.4185   -6.5237    6.0876 C   0  0  0  0  0  0  0  0  0  0  0  0
   -7.9299   -5.6066    6.3165 C   0  0  0  0  0  0  0  0  0  0  0  0
   -7.5792   -4.2303    6.5180 C   0  0  0  0  0  0  0  0  0  0  0  0
   -6.0059   -3.5768    6.3306 Cl  0  0  0  0  0  0  0  0  0  0  0  0
   -8.5819   -3.3971    6.8130 C   0  0  0  0  0  0  0  0  0  0  0  0
   -9.7872   -4.0300    6.7691 C   0  0  0  0  0  0  0  0  0  0  0  0
  -10.0627   -5.5310    6.4221 C   0  0  0  0  0  0  0  0  0  0  0  0
   -9.3272   -6.5898    7.7083 O   0  0  0  0  0  0  0  0  0  0  0  0
   -8.8072   -8.4262    8.1320 C   0  0  0  0  0  0  0  0  0  0  0  0
  -11.0561  -15.2726    6.6675 C   0  0  0  0  0  0  0  0  0  0  0  0
  -11.5362  -16.2698    5.5726 C   0  0  0  0  0  0  0  0  0  0  0  0
  -12.6871  -16.6498    4.6741 C   0  0  0  0  0  0  0  0  0  0  0  0
  -13.8698  -16.0489    4.8872 C   0  0  0  0  0  0  0  0  0  0  0  0
  -13.8555  -15.0998    5.7869 N   0  0  0  0  0  0  0  0  0  0  0  0
  -12.5285  -14.8068    6.3068 C   0  0  0  0  0  0  0  0  0  0  0  0
  -10.0141  -13.7175   10.0397 H   0  0  0  0  0  0  0  0  0  0  0  0
  -10.0676  -12.5301    9.2308 H   0  0  0  0  0  0  0  0  0  0  0  0
   -8.4797  -13.2793    9.7690 H   0  0  0  0  0  0  0  0  0  0  0  0
   -8.7796  -13.5980    6.8505 H   0  0  0  0  0  0  0  0  0  0  0  0
   -7.3094  -15.8947    8.3152 H   0  0  0  0  0  0  0  0  0  0  0  0
   -6.5576  -14.6755    8.6238 H   0  0  0  0  0  0  0  0  0  0  0  0
   -6.5504  -14.5801    6.9489 H   0  0  0  0  0  0  0  0  0  0  0  0
  -10.1785   -8.5703    5.2988 H   0  0  0  0  0  0  0  0  0  0  0  0
   -7.0020   -6.1648    6.1732 H   0  0  0  0  0  0  0  0  0  0  0  0
   -8.4730   -2.3445    7.0232 H   0  0  0  0  0  0  0  0  0  0  0  0
  -10.6595   -3.4080    6.9621 H   0  0  0  0  0  0  0  0  0  0  0  0
   -9.3004   -8.5823    9.0378 H   0  0  0  0  0  0  0  0  0  0  0  0
   -7.7243   -8.3654    8.3813 H   0  0  0  0  0  0  0  0  0  0  0  0
  -10.9516  -17.1555    5.3355 H   0  0  0  0  0  0  0  0  0  0  0  0
  -12.5970  -17.4983    4.0053 H   0  0  0  0  0  0  0  0  0  0  0  0
  -14.7979  -16.3075    4.4058 H   0  0  0  0  0  0  0  0  0  0  0  0
  -12.4426  -13.8940    5.6641 H   0  0  0  0  0  0  0  0  0  0  0  0
  1  2  1  0
  2  3  1  0
  2  4  1  0
  4  5  1  0
  5  6  2  0
  5  7  1  0
  7  8  2  0
  8  9  1  0
  9 10  2  0
 10 11  1  0
 11 12  1  0
 11 13  2  0
 13 14  1  0
 14 15  2  0
 15 16  1  0
 16 17  1  0
  4 18  1  0
 18 19  2  0
 19 20  1  0
 20 21  2  0
 21 22  1  0
 22 23  2  0
 17  7  1  0
 23 18  1  0
 15  9  1  0
  1 24  1  0
  1 25  1  0
  1 26  1  0
  2 27  1  0
  3 28  1  0
  3 29  1  0
  3 30  1  0
  8 31  1  0
 10 32  1  0
 13 33  1  0
 14 34  1  0
 17 35  1  0
 17 36  1  0
 19 37  1  0
 20 38  1  0
 21 39  1  0
 23 40  1  0
M  END
>  <Energy>  (218) 
1550.9237370662938

>  <compound_id>  (218) 
14378

>  <target_id>  (218) 
1

>  <reference_id>  (218) 
48

>  <inspiration_ids>  (218) 
[91, 48]

>  <energy_score>  (218) 
1435.444290863601

>  <distance_score>  (218) 
8.48252055082705

>  <path>  (218) 
/opt/xchem-fragalysis-2/maxwin/BulkDock/SCRATCH/511014/C14378-P48/C14378-P48.minimised.mol

>  <scratch_subdir>  (218) 
/opt/xchem-fragalysis-2/maxwin/BulkDock/SCRATCH/511014/C14378-P48

>  <fragmenstein_runtime>  (218) 
14.980313777923584

>  <fragmenstein_outcome>  (218) 
too moved

>  <fragmenstein_mode>  (218) 
expansion

>  <fragmenstein_error>  (218) 


$$$$
C14380-P48
     RDKit          3D

 42 45  0  0  0  0  0  0  0  0999 V2000
  -10.2593  -12.9244    9.8015 C   0  0  0  0  0  0  0  0  0  0  0  0
   -9.9647  -11.8541   10.5665 N   0  0  0  0  0  0  0  0  0  0  0  0
  -10.6887  -12.7432   11.6509 C   0  0  0  0  0  0  0  0  0  0  0  0
  -10.6288  -14.1388   12.4955 C   0  0  0  0  0  0  0  0  0  0  0  0
  -10.0450  -15.2752   12.3625 N   0  0  0  0  0  0  0  0  0  0  0  0
  -10.5270  -16.2734   13.1756 C   0  0  0  0  0  0  0  0  0  0  0  0
  -10.2133  -17.8658   13.0997 C   0  0  0  0  0  0  0  0  0  0  0  0
   -9.5759  -18.8393   12.2226 C   0  0  0  0  0  0  0  0  0  0  0  0
   -9.5315  -20.3199   12.0814 C   0  0  0  0  0  0  0  0  0  0  0  0
  -10.3520  -20.9814   12.9175 C   0  0  0  0  0  0  0  0  0  0  0  0
  -11.0326  -20.1901   13.7458 N   0  0  0  0  0  0  0  0  0  0  0  0
  -10.9384  -18.7517   13.8083 C   0  0  0  0  0  0  0  0  0  0  0  0
  -11.4752  -15.6503   13.9106 N   0  0  0  0  0  0  0  0  0  0  0  0
  -11.7228  -14.4591   13.2857 O   0  0  0  0  0  0  0  0  0  0  0  0
  -10.5011  -10.1906    9.7015 C   0  0  0  0  0  0  0  0  0  0  0  0
  -11.6196   -9.6907    9.8878 O   0  0  0  0  0  0  0  0  0  0  0  0
   -9.4730   -9.1001    8.2181 C   0  0  0  0  0  0  0  0  0  0  0  0
   -8.3450   -8.0267    8.3143 C   0  0  0  0  0  0  0  0  0  0  0  0
   -8.3371   -6.1186    7.5438 C   0  0  0  0  0  0  0  0  0  0  0  0
   -7.6079   -4.9885    7.9604 C   0  0  0  0  0  0  0  0  0  0  0  0
   -7.6320   -3.7147    7.3301 C   0  0  0  0  0  0  0  0  0  0  0  0
   -8.4931   -3.4696    6.2953 C   0  0  0  0  0  0  0  0  0  0  0  0
   -9.3122   -4.5067    5.9349 C   0  0  0  0  0  0  0  0  0  0  0  0
   -9.2191   -5.7706    6.5676 C   0  0  0  0  0  0  0  0  0  0  0  0
   -9.9732   -6.7606    6.0989 O   0  0  0  0  0  0  0  0  0  0  0  0
  -10.1080   -8.2496    6.4882 C   0  0  0  0  0  0  0  0  0  0  0  0
   -9.2729  -13.2911    9.9635 H   0  0  0  0  0  0  0  0  0  0  0  0
  -10.6933  -12.2255    9.2275 H   0  0  0  0  0  0  0  0  0  0  0  0
   -9.7638  -13.1273    8.8164 H   0  0  0  0  0  0  0  0  0  0  0  0
  -10.4551  -12.0692   12.4574 H   0  0  0  0  0  0  0  0  0  0  0  0
  -11.5641  -13.0727   11.1997 H   0  0  0  0  0  0  0  0  0  0  0  0
   -9.6407  -18.5968   11.2038 H   0  0  0  0  0  0  0  0  0  0  0  0
   -8.9835  -20.7781   11.2794 H   0  0  0  0  0  0  0  0  0  0  0  0
  -10.5097  -22.0454   12.9583 H   0  0  0  0  0  0  0  0  0  0  0  0
  -11.5719  -18.2347   14.4696 H   0  0  0  0  0  0  0  0  0  0  0  0
   -7.5092   -8.1337    9.0212 H   0  0  0  0  0  0  0  0  0  0  0  0
   -7.0217   -5.1468    8.8469 H   0  0  0  0  0  0  0  0  0  0  0  0
   -6.9972   -2.8957    7.6491 H   0  0  0  0  0  0  0  0  0  0  0  0
   -8.5312   -2.5121    5.7925 H   0  0  0  0  0  0  0  0  0  0  0  0
   -9.9690   -4.4123    5.0809 H   0  0  0  0  0  0  0  0  0  0  0  0
  -11.1817   -8.4140    6.7285 H   0  0  0  0  0  0  0  0  0  0  0  0
  -10.0422   -8.7582    5.4918 H   0  0  0  0  0  0  0  0  0  0  0  0
  1  2  1  0
  2  3  1  0
  3  4  1  0
  4  5  2  0
  5  6  1  0
  6  7  1  0
  7  8  2  0
  8  9  1  0
  9 10  2  0
 10 11  1  0
 11 12  2  0
  6 13  2  0
 13 14  1  0
  2 15  1  0
 15 16  2  0
 15 17  1  0
 17 18  2  0
 18 19  1  0
 19 20  2  0
 20 21  1  0
 21 22  2  0
 22 23  1  0
 23 24  2  0
 24 25  1  0
 25 26  1  0
 14  4  1  0
 26 17  1  0
 12  7  1  0
 24 19  1  0
  1 27  1  0
  1 28  1  0
  1 29  1  0
  3 30  1  0
  3 31  1  0
  8 32  1  0
  9 33  1  0
 10 34  1  0
 12 35  1  0
 18 36  1  0
 20 37  1  0
 21 38  1  0
 22 39  1  0
 23 40  1  0
 26 41  1  0
 26 42  1  0
M  END
>  <Energy>  (219) 
807.51799328045763

>  <compound_id>  (219) 
14380

>  <target_id>  (219) 
1

>  <reference_id>  (219) 
48

>  <inspiration_ids>  (219) 
[91, 48]

>  <energy_score>  (219) 
712.5275768842054

>  <distance_score>  (219) 
8.307963259184085

>  <path>  (219) 
/opt/xchem-fragalysis-2/maxwin/BulkDock/SCRATCH/511014/C14380-P48/C14380-P48.minimised.mol

>  <scratch_subdir>  (219) 
/opt/xchem-fragalysis-2/maxwin/BulkDock/SCRATCH/511014/C14380-P48

>  <fragmenstein_runtime>  (219) 
8.075555324554443

>  <fragmenstein_outcome>  (219) 
too moved

>  <fragmenstein_mode>  (219) 
expansion

>  <fragmenstein_error>  (219) 


$$$$
C14381-P48
     RDKit          3D

 45 48  0  0  0  0  0  0  0  0999 V2000
  -10.0380   -9.6758   11.8135 C   0  0  0  0  0  0  0  0  0  0  0  0
   -8.5779   -9.2433   11.7985 C   0  0  0  0  0  0  0  0  0  0  0  0
   -8.7672  -10.6697   13.0180 N   0  0  0  0  0  0  0  0  0  0  0  0
   -8.3478  -11.3383   14.2958 C   0  0  0  0  0  0  0  0  0  0  0  0
   -9.0610  -12.7580   14.4647 C   0  0  0  0  0  0  0  0  0  0  0  0
   -9.5842  -13.5441   13.4194 C   0  0  0  0  0  0  0  0  0  0  0  0
  -10.3377  -14.7314   13.6785 C   0  0  0  0  0  0  0  0  0  0  0  0
  -10.4378  -15.1892   14.9684 C   0  0  0  0  0  0  0  0  0  0  0  0
   -9.9163  -14.5070   16.0030 N   0  0  0  0  0  0  0  0  0  0  0  0
   -9.2876  -13.3164   15.7285 C   0  0  0  0  0  0  0  0  0  0  0  0
   -6.8533  -11.5034   14.4960 C   0  0  0  0  0  0  0  0  0  0  0  0
   -6.1971  -12.2172   15.6663 C   0  0  0  0  0  0  0  0  0  0  0  0
   -6.0960  -12.8071   14.2936 C   0  0  0  0  0  0  0  0  0  0  0  0
   -7.5898   -8.4644   10.1462 C   0  0  0  0  0  0  0  0  0  0  0  0
   -7.6908   -7.9672    8.5812 C   0  0  0  0  0  0  0  0  0  0  0  0
   -7.7720   -6.1343    7.7058 C   0  0  0  0  0  0  0  0  0  0  0  0
   -7.4249   -5.5317    6.4711 C   0  0  0  0  0  0  0  0  0  0  0  0
   -7.6795   -4.2241    6.0598 C   0  0  0  0  0  0  0  0  0  0  0  0
   -8.1985   -3.4303    7.0045 C   0  0  0  0  0  0  0  0  0  0  0  0
   -8.0444   -3.9199    8.2920 C   0  0  0  0  0  0  0  0  0  0  0  0
   -7.4714   -5.2007    8.6034 C   0  0  0  0  0  0  0  0  0  0  0  0
   -6.6678   -5.8375    9.6298 O   0  0  0  0  0  0  0  0  0  0  0  0
   -6.3299   -7.5312   10.2257 C   0  0  0  0  0  0  0  0  0  0  0  0
  -10.2659  -10.7338   11.9648 H   0  0  0  0  0  0  0  0  0  0  0  0
  -10.4893   -9.5507   10.8262 H   0  0  0  0  0  0  0  0  0  0  0  0
  -10.4937   -9.3963   12.7638 H   0  0  0  0  0  0  0  0  0  0  0  0
   -8.1547   -8.7608   12.6934 H   0  0  0  0  0  0  0  0  0  0  0  0
   -8.8447  -11.4953   12.4229 H   0  0  0  0  0  0  0  0  0  0  0  0
   -8.7321  -10.7015   15.1017 H   0  0  0  0  0  0  0  0  0  0  0  0
   -9.5316  -13.2349   12.3793 H   0  0  0  0  0  0  0  0  0  0  0  0
  -10.7930  -15.2701   12.8583 H   0  0  0  0  0  0  0  0  0  0  0  0
  -10.9597  -16.1071   15.2118 H   0  0  0  0  0  0  0  0  0  0  0  0
   -8.9767  -12.7842   16.6248 H   0  0  0  0  0  0  0  0  0  0  0  0
   -6.3532  -10.5659   14.2622 H   0  0  0  0  0  0  0  0  0  0  0  0
   -6.7761  -12.7526   16.4038 H   0  0  0  0  0  0  0  0  0  0  0  0
   -5.3008  -11.7708   16.0870 H   0  0  0  0  0  0  0  0  0  0  0  0
   -5.1423  -12.7573   13.7815 H   0  0  0  0  0  0  0  0  0  0  0  0
   -6.6097  -13.7484   14.1756 H   0  0  0  0  0  0  0  0  0  0  0  0
   -8.6278   -8.4297    8.2443 H   0  0  0  0  0  0  0  0  0  0  0  0
   -6.8162   -6.0893    5.7972 H   0  0  0  0  0  0  0  0  0  0  0  0
   -7.4773   -3.8910    5.0515 H   0  0  0  0  0  0  0  0  0  0  0  0
   -8.5282   -2.4176    6.8133 H   0  0  0  0  0  0  0  0  0  0  0  0
   -8.2719   -3.1147    8.9561 H   0  0  0  0  0  0  0  0  0  0  0  0
   -5.6272   -8.1287    9.6839 H   0  0  0  0  0  0  0  0  0  0  0  0
   -5.8422   -7.3849   11.2071 H   0  0  0  0  0  0  0  0  0  0  0  0
  1  2  1  0
  2  3  1  0
  3  4  1  0
  4  5  1  0
  5  6  2  0
  6  7  1  0
  7  8  2  0
  8  9  1  0
  9 10  2  0
  4 11  1  0
 11 12  1  0
 12 13  1  0
  2 14  1  0
 14 15  2  0
 15 16  1  0
 16 17  2  0
 17 18  1  0
 18 19  2  0
 19 20  1  0
 20 21  2  0
 21 22  1  0
 22 23  1  0
 10  5  1  0
 13 11  1  0
 23 14  1  0
 21 16  1  0
  1 24  1  0
  1 25  1  0
  1 26  1  0
  2 27  1  0
  3 28  1  0
  4 29  1  0
  6 30  1  0
  7 31  1  0
  8 32  1  0
 10 33  1  0
 11 34  1  0
 12 35  1  0
 12 36  1  0
 13 37  1  0
 13 38  1  0
 15 39  1  0
 17 40  1  0
 18 41  1  0
 19 42  1  0
 20 43  1  0
 23 44  1  0
 23 45  1  0
M  END
>  <Energy>  (220) 
666.79098135867946

>  <compound_id>  (220) 
14381

>  <target_id>  (220) 
1

>  <reference_id>  (220) 
48

>  <inspiration_ids>  (220) 
[91, 48]

>  <energy_score>  (220) 
578.6212072406458

>  <distance_score>  (220) 
10.625296822738543

>  <path>  (220) 
/opt/xchem-fragalysis-2/maxwin/BulkDock/SCRATCH/511014/C14381-P48/C14381-P48.minimised.mol

>  <scratch_subdir>  (220) 
/opt/xchem-fragalysis-2/maxwin/BulkDock/SCRATCH/511014/C14381-P48

>  <fragmenstein_runtime>  (220) 
9.508292436599731

>  <fragmenstein_outcome>  (220) 
too moved

>  <fragmenstein_mode>  (220) 
expansion

>  <fragmenstein_error>  (220) 


$$$$
C14382-P48
     RDKit          3D

 41 44  0  0  0  0  0  0  0  0999 V2000
  -11.2621  -11.4063    9.9050 O   0  0  0  0  0  0  0  0  0  0  0  0
  -10.2891  -11.8321    9.4871 C   0  0  0  0  0  0  0  0  0  0  0  0
   -9.7074  -13.4253   10.0314 N   0  0  0  0  0  0  0  0  0  0  0  0
  -10.4061  -14.7463   11.4804 C   0  0  0  0  0  0  0  0  0  0  0  0
  -11.1588  -16.7307   10.9389 C   0  0  0  0  0  0  0  0  0  0  0  0
  -12.4491  -16.9690   10.2199 C   0  0  0  0  0  0  0  0  0  0  0  0
  -12.2261  -18.0285    9.3741 C   0  0  0  0  0  0  0  0  0  0  0  0
  -10.9155  -18.9480    8.8008 C   0  0  0  0  0  0  0  0  0  0  0  0
   -9.7328  -18.9646    9.3514 N   0  0  0  0  0  0  0  0  0  0  0  0
   -9.9955  -18.2242   10.4488 C   0  0  0  0  0  0  0  0  0  0  0  0
  -10.2400  -14.6778   13.0643 C   0  0  0  0  0  0  0  0  0  0  0  0
  -11.3231  -14.9955   14.1056 C   0  0  0  0  0  0  0  0  0  0  0  0
  -10.2389  -15.9760   13.9230 C   0  0  0  0  0  0  0  0  0  0  0  0
   -9.3893  -10.4115    8.1740 C   0  0  0  0  0  0  0  0  0  0  0  0
   -8.8379   -8.6611    8.3025 C   0  0  0  0  0  0  0  0  0  0  0  0
   -9.2204   -6.7550    7.5807 C   0  0  0  0  0  0  0  0  0  0  0  0
   -8.4041   -5.4001    7.6060 C   0  0  0  0  0  0  0  0  0  0  0  0
   -8.5841   -4.2739    6.7935 C   0  0  0  0  0  0  0  0  0  0  0  0
   -9.4701   -4.3844    5.7572 C   0  0  0  0  0  0  0  0  0  0  0  0
  -10.0803   -5.6313    5.5253 C   0  0  0  0  0  0  0  0  0  0  0  0
   -9.8719   -6.7849    6.3901 C   0  0  0  0  0  0  0  0  0  0  0  0
  -10.1746   -8.2159    6.1961 O   0  0  0  0  0  0  0  0  0  0  0  0
   -9.9123   -9.2589    7.6971 C   0  0  0  0  0  0  0  0  0  0  0  0
   -8.8738  -13.6740    9.4857 H   0  0  0  0  0  0  0  0  0  0  0  0
  -11.2249  -13.9855   11.6833 H   0  0  0  0  0  0  0  0  0  0  0  0
  -13.3988  -16.5161   10.4665 H   0  0  0  0  0  0  0  0  0  0  0  0
  -13.1574  -18.5579    9.5223 H   0  0  0  0  0  0  0  0  0  0  0  0
  -11.0380  -19.8738    8.2213 H   0  0  0  0  0  0  0  0  0  0  0  0
   -9.3187  -18.5555   11.2999 H   0  0  0  0  0  0  0  0  0  0  0  0
   -9.6406  -13.8105   13.3367 H   0  0  0  0  0  0  0  0  0  0  0  0
  -12.3229  -15.0577   13.7136 H   0  0  0  0  0  0  0  0  0  0  0  0
  -11.3150  -14.5067   15.0773 H   0  0  0  0  0  0  0  0  0  0  0  0
  -10.4711  -16.9333   13.4873 H   0  0  0  0  0  0  0  0  0  0  0  0
   -9.5162  -16.0572   14.7309 H   0  0  0  0  0  0  0  0  0  0  0  0
   -7.8555   -8.4963    8.8042 H   0  0  0  0  0  0  0  0  0  0  0  0
   -7.6067   -5.2289    8.3356 H   0  0  0  0  0  0  0  0  0  0  0  0
   -8.0110   -3.3684    6.9570 H   0  0  0  0  0  0  0  0  0  0  0  0
   -9.6089   -3.5693    5.0564 H   0  0  0  0  0  0  0  0  0  0  0  0
  -10.6424   -5.7850    4.6021 H   0  0  0  0  0  0  0  0  0  0  0  0
   -9.4825  -10.0822    6.9887 H   0  0  0  0  0  0  0  0  0  0  0  0
  -10.9605   -9.3131    8.0796 H   0  0  0  0  0  0  0  0  0  0  0  0
  1  2  2  0
  2  3  1  0
  3  4  1  0
  4  5  1  0
  5  6  2  0
  6  7  1  0
  7  8  2  0
  8  9  1  0
  9 10  2  0
  4 11  1  0
 11 12  1  0
 12 13  1  0
  2 14  1  0
 14 15  2  0
 15 16  1  0
 16 17  2  0
 17 18  1  0
 18 19  2  0
 19 20  1  0
 20 21  2  0
 21 22  1  0
 22 23  1  0
 10  5  1  0
 13 11  1  0
 23 14  1  0
 21 16  1  0
  3 24  1  0
  4 25  1  0
  6 26  1  0
  7 27  1  0
  8 28  1  0
 10 29  1  0
 11 30  1  0
 12 31  1  0
 12 32  1  0
 13 33  1  0
 13 34  1  0
 15 35  1  0
 17 36  1  0
 18 37  1  0
 19 38  1  0
 20 39  1  0
 23 40  1  0
 23 41  1  0
M  END
>  <Energy>  (221) 
1249.6109926461124

>  <compound_id>  (221) 
14382

>  <target_id>  (221) 
1

>  <reference_id>  (221) 
48

>  <inspiration_ids>  (221) 
[91, 48]

>  <energy_score>  (221) 
1201.077956660352

>  <distance_score>  (221) 
8.667682678253984

>  <path>  (221) 
/opt/xchem-fragalysis-2/maxwin/BulkDock/SCRATCH/511014/C14382-P48/C14382-P48.minimised.mol

>  <scratch_subdir>  (221) 
/opt/xchem-fragalysis-2/maxwin/BulkDock/SCRATCH/511014/C14382-P48

>  <fragmenstein_runtime>  (221) 
24.78705644607544

>  <fragmenstein_outcome>  (221) 
too moved

>  <fragmenstein_mode>  (221) 
expansion

>  <fragmenstein_error>  (221) 


$$$$
C14383-P48
     RDKit          3D

 32 35  0  0  0  0  0  0  0  0999 V2000
  -10.0277   -7.9297    6.3589 C   0  0  0  0  0  0  0  0  0  0  0  0
   -9.4229   -9.0733    7.4774 C   0  0  0  0  0  0  0  0  0  0  0  0
   -9.2848  -10.9250    7.1552 C   0  0  0  0  0  0  0  0  0  0  0  0
   -8.6816  -11.7841    7.8862 N   0  0  0  0  0  0  0  0  0  0  0  0
   -9.4632  -13.2724    8.2771 N   0  0  0  0  0  0  0  0  0  0  0  0
   -9.6664  -13.9858    7.1556 C   0  0  0  0  0  0  0  0  0  0  0  0
  -11.0375  -15.5774    6.7532 C   0  0  0  0  0  0  0  0  0  0  0  0
  -11.3479  -16.9328    7.6668 C   0  0  0  0  0  0  0  0  0  0  0  0
  -10.4884  -18.6422    7.9194 C   0  0  0  0  0  0  0  0  0  0  0  0
  -10.2508  -19.3420    6.3714 C   0  0  0  0  0  0  0  0  0  0  0  0
  -10.8957  -18.3566    5.1948 N   0  0  0  0  0  0  0  0  0  0  0  0
  -11.2897  -16.6700    5.4954 C   0  0  0  0  0  0  0  0  0  0  0  0
   -9.8549  -12.4042    6.2302 O   0  0  0  0  0  0  0  0  0  0  0  0
   -7.9847   -8.1065    8.3054 C   0  0  0  0  0  0  0  0  0  0  0  0
   -7.8194   -6.2833    7.7272 O   0  0  0  0  0  0  0  0  0  0  0  0
   -8.5956   -5.4966    6.8973 C   0  0  0  0  0  0  0  0  0  0  0  0
   -8.1228   -4.1881    6.7379 C   0  0  0  0  0  0  0  0  0  0  0  0
   -8.6132   -3.4252    5.6998 C   0  0  0  0  0  0  0  0  0  0  0  0
   -9.5641   -3.9891    4.8528 C   0  0  0  0  0  0  0  0  0  0  0  0
  -10.1403   -5.2832    5.0787 C   0  0  0  0  0  0  0  0  0  0  0  0
   -9.6643   -6.1061    6.1069 C   0  0  0  0  0  0  0  0  0  0  0  0
   -9.7693   -7.0815    7.0340 H   0  0  0  0  0  0  0  0  0  0  0  0
  -12.0946  -16.7744    8.4875 H   0  0  0  0  0  0  0  0  0  0  0  0
  -10.6568  -19.2824    8.7428 H   0  0  0  0  0  0  0  0  0  0  0  0
  -10.0758  -20.3713    6.1177 H   0  0  0  0  0  0  0  0  0  0  0  0
  -11.7933  -16.3194    4.5857 H   0  0  0  0  0  0  0  0  0  0  0  0
   -6.9901   -8.4571    7.9796 H   0  0  0  0  0  0  0  0  0  0  0  0
   -7.7861   -8.2635    9.3620 H   0  0  0  0  0  0  0  0  0  0  0  0
   -7.3148   -3.8164    7.3547 H   0  0  0  0  0  0  0  0  0  0  0  0
   -8.2193   -2.4323    5.5091 H   0  0  0  0  0  0  0  0  0  0  0  0
   -9.8775   -3.4289    3.9734 H   0  0  0  0  0  0  0  0  0  0  0  0
  -10.8284   -5.7002    4.3443 H   0  0  0  0  0  0  0  0  0  0  0  0
  1  2  2  0
  2  3  1  0
  3  4  2  0
  4  5  1  0
  5  6  2  0
  6  7  1  0
  7  8  2  0
  8  9  1  0
  9 10  2  0
 10 11  1  0
 11 12  2  0
  6 13  1  0
  2 14  1  0
 14 15  1  0
 15 16  1  0
 16 17  2  0
 17 18  1  0
 18 19  2  0
 19 20  1  0
 20 21  2  0
 21  1  1  0
 13  3  1  0
 21 16  1  0
 12  7  1  0
  1 22  1  0
  8 23  1  0
  9 24  1  0
 10 25  1  0
 12 26  1  0
 14 27  1  0
 14 28  1  0
 17 29  1  0
 18 30  1  0
 19 31  1  0
 20 32  1  0
M  END
>  <Energy>  (222) 
1106.6382733219805

>  <compound_id>  (222) 
14383

>  <target_id>  (222) 
1

>  <reference_id>  (222) 
48

>  <inspiration_ids>  (222) 
[91, 48]

>  <energy_score>  (222) 
1025.672249456603

>  <distance_score>  (222) 
7.440285433059102

>  <path>  (222) 
/opt/xchem-fragalysis-2/maxwin/BulkDock/SCRATCH/511014/C14383-P48/C14383-P48.minimised.mol

>  <scratch_subdir>  (222) 
/opt/xchem-fragalysis-2/maxwin/BulkDock/SCRATCH/511014/C14383-P48

>  <fragmenstein_runtime>  (222) 
7.350169897079468

>  <fragmenstein_outcome>  (222) 
too moved

>  <fragmenstein_mode>  (222) 
expansion

>  <fragmenstein_error>  (222) 


$$$$
C14384-P48
     RDKit          3D

 37 39  0  0  0  0  0  0  0  0999 V2000
  -10.4204   -3.8614    6.4156 C   0  0  0  0  0  0  0  0  0  0  0  0
  -10.3139   -5.2590    5.2071 C   0  0  0  0  0  0  0  0  0  0  0  0
   -9.4915   -4.5481    4.1731 O   0  0  0  0  0  0  0  0  0  0  0  0
   -8.3840   -4.0051    4.7996 C   0  0  0  0  0  0  0  0  0  0  0  0
   -7.6835   -2.9575    4.2059 C   0  0  0  0  0  0  0  0  0  0  0  0
   -6.5829   -2.4191    4.8694 C   0  0  0  0  0  0  0  0  0  0  0  0
   -6.2046   -2.9345    6.1075 C   0  0  0  0  0  0  0  0  0  0  0  0
   -6.9202   -3.9968    6.6733 C   0  0  0  0  0  0  0  0  0  0  0  0
   -8.0073   -4.5699    6.0272 C   0  0  0  0  0  0  0  0  0  0  0  0
   -8.8649   -5.8136    6.6542 C   0  0  0  0  0  0  0  0  0  0  0  0
   -9.7801   -6.7210    5.9050 C   0  0  0  0  0  0  0  0  0  0  0  0
  -10.0493   -8.7576    5.5547 C   0  0  0  0  0  0  0  0  0  0  0  0
   -9.6714  -10.5171    5.7208 N   0  0  0  0  0  0  0  0  0  0  0  0
  -10.2322  -12.4509    6.0345 N   0  0  0  0  0  0  0  0  0  0  0  0
  -11.9344  -13.4971    5.5602 C   0  0  0  0  0  0  0  0  0  0  0  0
  -12.8920  -13.0464    4.9237 O   0  0  0  0  0  0  0  0  0  0  0  0
  -11.9020  -15.5432    6.1091 C   0  0  0  0  0  0  0  0  0  0  0  0
  -11.4524  -16.7309    7.4306 C   0  0  0  0  0  0  0  0  0  0  0  0
  -10.6064  -18.4480    7.9267 C   0  0  0  0  0  0  0  0  0  0  0  0
  -10.2832  -19.3190    6.4281 C   0  0  0  0  0  0  0  0  0  0  0  0
  -10.9600  -18.4631    5.1399 N   0  0  0  0  0  0  0  0  0  0  0  0
  -11.6445  -16.8251    5.1294 C   0  0  0  0  0  0  0  0  0  0  0  0
   -9.6286   -3.7425    7.1617 H   0  0  0  0  0  0  0  0  0  0  0  0
  -11.2667   -3.8649    7.1015 H   0  0  0  0  0  0  0  0  0  0  0  0
  -10.3909   -2.9009    5.8750 H   0  0  0  0  0  0  0  0  0  0  0  0
  -11.1920   -5.5602    4.6377 H   0  0  0  0  0  0  0  0  0  0  0  0
   -8.0012   -2.5631    3.2464 H   0  0  0  0  0  0  0  0  0  0  0  0
   -6.0260   -1.5985    4.4259 H   0  0  0  0  0  0  0  0  0  0  0  0
   -5.3509   -2.5164    6.6354 H   0  0  0  0  0  0  0  0  0  0  0  0
   -6.6264   -4.3878    7.6274 H   0  0  0  0  0  0  0  0  0  0  0  0
   -8.2122   -5.9932    7.4774 H   0  0  0  0  0  0  0  0  0  0  0  0
   -9.7335   -8.7202    6.6725 H   0  0  0  0  0  0  0  0  0  0  0  0
   -9.5629  -13.0629    6.4938 H   0  0  0  0  0  0  0  0  0  0  0  0
  -12.0786  -16.5096    8.3079 H   0  0  0  0  0  0  0  0  0  0  0  0
  -10.6655  -18.9514    8.8622 H   0  0  0  0  0  0  0  0  0  0  0  0
  -10.0265  -20.3484    6.2729 H   0  0  0  0  0  0  0  0  0  0  0  0
  -11.8955  -16.6562    4.0701 H   0  0  0  0  0  0  0  0  0  0  0  0
  1  2  1  0
  2  3  1  0
  3  4  1  0
  4  5  2  0
  5  6  1  0
  6  7  2  0
  7  8  1  0
  8  9  2  0
  9 10  1  0
 10 11  2  0
 11 12  1  0
 12 13  2  3
 13 14  1  0
 14 15  1  0
 15 16  2  0
 15 17  1  0
 17 18  2  0
 18 19  1  0
 19 20  2  0
 20 21  1  0
 21 22  2  0
 11  2  1  0
 22 17  1  0
  9  4  1  0
  1 23  1  0
  1 24  1  0
  1 25  1  0
  2 26  1  0
  5 27  1  0
  6 28  1  0
  7 29  1  0
  8 30  1  0
 10 31  1  0
 12 32  1  0
 14 33  1  0
 18 34  1  0
 19 35  1  0
 20 36  1  0
 22 37  1  0
M  END
>  <Energy>  (223) 
1356.8210845115091

>  <compound_id>  (223) 
14384

>  <target_id>  (223) 
1

>  <reference_id>  (223) 
48

>  <inspiration_ids>  (223) 
[91, 48]

>  <energy_score>  (223) 
1241.65294876705

>  <distance_score>  (223) 
6.705556078847245

>  <path>  (223) 
/opt/xchem-fragalysis-2/maxwin/BulkDock/SCRATCH/511014/C14384-P48/C14384-P48.minimised.mol

>  <scratch_subdir>  (223) 
/opt/xchem-fragalysis-2/maxwin/BulkDock/SCRATCH/511014/C14384-P48

>  <fragmenstein_runtime>  (223) 
6.8557446002960205

>  <fragmenstein_outcome>  (223) 
too moved

>  <fragmenstein_mode>  (223) 
expansion

>  <fragmenstein_error>  (223) 


$$$$
C14385-P48
     RDKit          3D

 37 39  0  0  0  0  0  0  0  0999 V2000
   -9.3189  -13.0636    7.6138 C   0  0  0  0  0  0  0  0  0  0  0  0
   -8.5757  -11.6611    7.9653 N   0  0  0  0  0  0  0  0  0  0  0  0
   -8.1964  -13.0668    9.5792 C   0  0  0  0  0  0  0  0  0  0  0  0
   -6.3797  -14.1784    9.6019 C   0  0  0  0  0  0  0  0  0  0  0  0
   -5.5930  -14.4004   10.8525 C   0  0  0  0  0  0  0  0  0  0  0  0
   -4.5355  -15.3041   11.0802 C   0  0  0  0  0  0  0  0  0  0  0  0
   -3.9379  -15.8134    9.9841 C   0  0  0  0  0  0  0  0  0  0  0  0
   -4.2375  -15.2881    8.8031 N   0  0  0  0  0  0  0  0  0  0  0  0
   -5.3369  -14.4484    8.6788 C   0  0  0  0  0  0  0  0  0  0  0  0
   -9.3329   -9.8553    8.1078 C   0  0  0  0  0  0  0  0  0  0  0  0
  -10.4683   -9.6351    8.0390 O   0  0  0  0  0  0  0  0  0  0  0  0
   -8.4334   -8.2089    8.2765 C   0  0  0  0  0  0  0  0  0  0  0  0
   -9.2195   -6.7728    7.5755 C   0  0  0  0  0  0  0  0  0  0  0  0
   -8.6159   -5.3949    7.3055 C   0  0  0  0  0  0  0  0  0  0  0  0
   -9.1484   -4.5584    6.2912 C   0  0  0  0  0  0  0  0  0  0  0  0
   -8.4858   -3.4286    5.8291 C   0  0  0  0  0  0  0  0  0  0  0  0
   -7.2297   -3.1756    6.3193 C   0  0  0  0  0  0  0  0  0  0  0  0
   -6.7175   -4.0098    7.3178 C   0  0  0  0  0  0  0  0  0  0  0  0
   -7.4549   -5.0656    7.9316 C   0  0  0  0  0  0  0  0  0  0  0  0
   -6.9792   -5.9091    9.1035 O   0  0  0  0  0  0  0  0  0  0  0  0
   -7.1306   -7.7766    9.0110 C   0  0  0  0  0  0  0  0  0  0  0  0
   -8.8568  -13.8805    7.1078 H   0  0  0  0  0  0  0  0  0  0  0  0
   -9.7434  -12.7883    6.6512 H   0  0  0  0  0  0  0  0  0  0  0  0
   -9.9577  -13.1891    8.4434 H   0  0  0  0  0  0  0  0  0  0  0  0
   -8.4365  -12.7620   10.6467 H   0  0  0  0  0  0  0  0  0  0  0  0
   -8.9090  -13.8595    9.4138 H   0  0  0  0  0  0  0  0  0  0  0  0
   -5.7197  -13.7163   11.7043 H   0  0  0  0  0  0  0  0  0  0  0  0
   -4.1431  -15.4827   12.0742 H   0  0  0  0  0  0  0  0  0  0  0  0
   -3.1096  -16.5097   10.0204 H   0  0  0  0  0  0  0  0  0  0  0  0
   -5.2449  -14.0275    7.6851 H   0  0  0  0  0  0  0  0  0  0  0  0
   -9.9003   -6.9487    6.7098 H   0  0  0  0  0  0  0  0  0  0  0  0
  -10.0552   -4.8566    5.7736 H   0  0  0  0  0  0  0  0  0  0  0  0
   -8.9129   -2.8240    5.0368 H   0  0  0  0  0  0  0  0  0  0  0  0
   -6.6314   -2.3599    5.9259 H   0  0  0  0  0  0  0  0  0  0  0  0
   -5.6884   -3.7862    7.5654 H   0  0  0  0  0  0  0  0  0  0  0  0
   -6.3099   -8.2736    8.4969 H   0  0  0  0  0  0  0  0  0  0  0  0
   -6.9664   -8.0651   10.0437 H   0  0  0  0  0  0  0  0  0  0  0  0
  1  2  1  0
  2  3  1  0
  3  4  1  0
  4  5  2  0
  5  6  1  0
  6  7  2  0
  7  8  1  0
  8  9  2  0
  2 10  1  0
 10 11  2  0
 10 12  1  0
 12 13  2  0
 13 14  1  0
 14 15  2  0
 15 16  1  0
 16 17  2  0
 17 18  1  0
 18 19  2  0
 19 20  1  0
 20 21  1  0
  9  4  1  0
 21 12  1  0
 19 14  1  0
  1 22  1  0
  1 23  1  0
  1 24  1  0
  3 25  1  0
  3 26  1  0
  5 27  1  0
  6 28  1  0
  7 29  1  0
  9 30  1  0
 13 31  1  0
 15 32  1  0
 16 33  1  0
 17 34  1  0
 18 35  1  0
 21 36  1  0
 21 37  1  0
M  END
>  <Energy>  (224) 
795.22267387777492

>  <compound_id>  (224) 
14385

>  <target_id>  (224) 
1

>  <reference_id>  (224) 
48

>  <inspiration_ids>  (224) 
[91, 48]

>  <energy_score>  (224) 
742.9479514760997

>  <distance_score>  (224) 
9.215642642570083

>  <path>  (224) 
/opt/xchem-fragalysis-2/maxwin/BulkDock/SCRATCH/511014/C14385-P48/C14385-P48.minimised.mol

>  <scratch_subdir>  (224) 
/opt/xchem-fragalysis-2/maxwin/BulkDock/SCRATCH/511014/C14385-P48

>  <fragmenstein_runtime>  (224) 
5.617682218551636

>  <fragmenstein_outcome>  (224) 
too moved

>  <fragmenstein_mode>  (224) 
expansion

>  <fragmenstein_error>  (224) 


$$$$
C14380-P48
     RDKit          3D

 42 45  0  0  0  0  0  0  0  0999 V2000
  -10.2593  -12.9244    9.8015 C   0  0  0  0  0  0  0  0  0  0  0  0
   -9.9647  -11.8541   10.5665 N   0  0  0  0  0  0  0  0  0  0  0  0
  -10.6887  -12.7432   11.6509 C   0  0  0  0  0  0  0  0  0  0  0  0
  -10.6288  -14.1388   12.4955 C   0  0  0  0  0  0  0  0  0  0  0  0
  -10.0450  -15.2752   12.3625 N   0  0  0  0  0  0  0  0  0  0  0  0
  -10.5270  -16.2734   13.1756 C   0  0  0  0  0  0  0  0  0  0  0  0
  -10.2133  -17.8658   13.0997 C   0  0  0  0  0  0  0  0  0  0  0  0
   -9.5759  -18.8393   12.2226 C   0  0  0  0  0  0  0  0  0  0  0  0
   -9.5315  -20.3199   12.0814 C   0  0  0  0  0  0  0  0  0  0  0  0
  -10.3520  -20.9814   12.9175 C   0  0  0  0  0  0  0  0  0  0  0  0
  -11.0326  -20.1901   13.7458 N   0  0  0  0  0  0  0  0  0  0  0  0
  -10.9384  -18.7517   13.8083 C   0  0  0  0  0  0  0  0  0  0  0  0
  -11.4752  -15.6503   13.9106 N   0  0  0  0  0  0  0  0  0  0  0  0
  -11.7228  -14.4591   13.2857 O   0  0  0  0  0  0  0  0  0  0  0  0
  -10.5011  -10.1906    9.7015 C   0  0  0  0  0  0  0  0  0  0  0  0
  -11.6196   -9.6907    9.8878 O   0  0  0  0  0  0  0  0  0  0  0  0
   -9.4730   -9.1001    8.2181 C   0  0  0  0  0  0  0  0  0  0  0  0
   -8.3450   -8.0267    8.3143 C   0  0  0  0  0  0  0  0  0  0  0  0
   -8.3371   -6.1186    7.5438 C   0  0  0  0  0  0  0  0  0  0  0  0
   -7.6079   -4.9885    7.9604 C   0  0  0  0  0  0  0  0  0  0  0  0
   -7.6320   -3.7147    7.3301 C   0  0  0  0  0  0  0  0  0  0  0  0
   -8.4931   -3.4696    6.2953 C   0  0  0  0  0  0  0  0  0  0  0  0
   -9.3122   -4.5067    5.9349 C   0  0  0  0  0  0  0  0  0  0  0  0
   -9.2191   -5.7706    6.5676 C   0  0  0  0  0  0  0  0  0  0  0  0
   -9.9732   -6.7606    6.0989 O   0  0  0  0  0  0  0  0  0  0  0  0
  -10.1080   -8.2496    6.4882 C   0  0  0  0  0  0  0  0  0  0  0  0
   -9.2729  -13.2911    9.9635 H   0  0  0  0  0  0  0  0  0  0  0  0
  -10.6933  -12.2255    9.2275 H   0  0  0  0  0  0  0  0  0  0  0  0
   -9.7638  -13.1273    8.8164 H   0  0  0  0  0  0  0  0  0  0  0  0
  -10.4551  -12.0692   12.4574 H   0  0  0  0  0  0  0  0  0  0  0  0
  -11.5641  -13.0727   11.1997 H   0  0  0  0  0  0  0  0  0  0  0  0
   -9.6407  -18.5968   11.2038 H   0  0  0  0  0  0  0  0  0  0  0  0
   -8.9835  -20.7781   11.2794 H   0  0  0  0  0  0  0  0  0  0  0  0
  -10.5097  -22.0454   12.9583 H   0  0  0  0  0  0  0  0  0  0  0  0
  -11.5719  -18.2347   14.4696 H   0  0  0  0  0  0  0  0  0  0  0  0
   -7.5092   -8.1337    9.0212 H   0  0  0  0  0  0  0  0  0  0  0  0
   -7.0217   -5.1468    8.8469 H   0  0  0  0  0  0  0  0  0  0  0  0
   -6.9972   -2.8957    7.6491 H   0  0  0  0  0  0  0  0  0  0  0  0
   -8.5312   -2.5121    5.7925 H   0  0  0  0  0  0  0  0  0  0  0  0
   -9.9690   -4.4123    5.0809 H   0  0  0  0  0  0  0  0  0  0  0  0
  -11.1817   -8.4140    6.7285 H   0  0  0  0  0  0  0  0  0  0  0  0
  -10.0422   -8.7582    5.4918 H   0  0  0  0  0  0  0  0  0  0  0  0
  1  2  1  0
  2  3  1  0
  3  4  1  0
  4  5  2  0
  5  6  1  0
  6  7  1  0
  7  8  2  0
  8  9  1  0
  9 10  2  0
 10 11  1  0
 11 12  2  0
  6 13  2  0
 13 14  1  0
  2 15  1  0
 15 16  2  0
 15 17  1  0
 17 18  2  0
 18 19  1  0
 19 20  2  0
 20 21  1  0
 21 22  2  0
 22 23  1  0
 23 24  2  0
 24 25  1  0
 25 26  1  0
 14  4  1  0
 26 17  1  0
 12  7  1  0
 24 19  1  0
  1 27  1  0
  1 28  1  0
  1 29  1  0
  3 30  1  0
  3 31  1  0
  8 32  1  0
  9 33  1  0
 10 34  1  0
 12 35  1  0
 18 36  1  0
 20 37  1  0
 21 38  1  0
 22 39  1  0
 23 40  1  0
 26 41  1  0
 26 42  1  0
M  END
>  <Energy>  (225) 
807.51799328045763

>  <compound_id>  (225) 
14380

>  <target_id>  (225) 
1

>  <reference_id>  (225) 
48

>  <inspiration_ids>  (225) 
[91, 48]

>  <energy_score>  (225) 
712.5275768842054

>  <distance_score>  (225) 
8.307963259184085

>  <path>  (225) 
/opt/xchem-fragalysis-2/maxwin/BulkDock/SCRATCH/511014/C14380-P48/C14380-P48.minimised.mol

>  <scratch_subdir>  (225) 
/opt/xchem-fragalysis-2/maxwin/BulkDock/SCRATCH/511014/C14380-P48

>  <fragmenstein_runtime>  (225) 
8.059819221496582

>  <fragmenstein_outcome>  (225) 
too moved

>  <fragmenstein_mode>  (225) 
expansion

>  <fragmenstein_error>  (225) 


$$$$
C14386-P48
     RDKit          3D

 41 43  0  0  0  0  0  0  0  0999 V2000
   -7.7658   -1.0964    6.0509 C   0  0  0  0  0  0  0  0  0  0  0  0
   -8.5417   -2.2142    5.6377 O   0  0  0  0  0  0  0  0  0  0  0  0
   -8.3598   -3.3702    6.3278 C   0  0  0  0  0  0  0  0  0  0  0  0
   -7.4596   -3.6247    7.3245 C   0  0  0  0  0  0  0  0  0  0  0  0
   -7.4144   -4.9059    7.9571 C   0  0  0  0  0  0  0  0  0  0  0  0
   -8.0736   -6.0449    7.5459 C   0  0  0  0  0  0  0  0  0  0  0  0
   -9.0525   -5.6867    6.6294 C   0  0  0  0  0  0  0  0  0  0  0  0
   -9.1896   -4.4116    6.0166 C   0  0  0  0  0  0  0  0  0  0  0  0
   -9.9252   -6.6048    6.1663 O   0  0  0  0  0  0  0  0  0  0  0  0
  -10.0281   -8.1042    6.4179 C   0  0  0  0  0  0  0  0  0  0  0  0
   -9.0403   -8.8686    7.9267 C   0  0  0  0  0  0  0  0  0  0  0  0
   -9.4598  -10.7253    8.3040 C   0  0  0  0  0  0  0  0  0  0  0  0
  -10.2342  -10.7892    9.3579 O   0  0  0  0  0  0  0  0  0  0  0  0
   -9.0109  -12.0453    7.3138 N   0  0  0  0  0  0  0  0  0  0  0  0
   -9.8561  -12.2746    6.2271 C   0  0  0  0  0  0  0  0  0  0  0  0
   -9.5710  -13.9821    7.3187 C   0  0  0  0  0  0  0  0  0  0  0  0
  -11.0205  -15.5505    6.7849 C   0  0  0  0  0  0  0  0  0  0  0  0
  -11.3439  -16.9300    7.6747 C   0  0  0  0  0  0  0  0  0  0  0  0
  -10.4867  -18.6424    7.9172 C   0  0  0  0  0  0  0  0  0  0  0  0
  -10.2523  -19.3317    6.3586 C   0  0  0  0  0  0  0  0  0  0  0  0
  -10.8906  -18.3261    5.1913 N   0  0  0  0  0  0  0  0  0  0  0  0
  -11.2657  -16.6374    5.5109 C   0  0  0  0  0  0  0  0  0  0  0  0
   -7.9505   -7.9088    8.3068 C   0  0  0  0  0  0  0  0  0  0  0  0
   -8.0539   -0.2418    5.4311 H   0  0  0  0  0  0  0  0  0  0  0  0
   -7.9710   -0.8351    7.0948 H   0  0  0  0  0  0  0  0  0  0  0  0
   -6.6977   -1.2780    5.8918 H   0  0  0  0  0  0  0  0  0  0  0  0
   -6.8020   -2.8278    7.6473 H   0  0  0  0  0  0  0  0  0  0  0  0
   -6.8562   -5.1062    8.8465 H   0  0  0  0  0  0  0  0  0  0  0  0
   -9.9129   -4.3017    5.2194 H   0  0  0  0  0  0  0  0  0  0  0  0
   -9.9809   -8.6064    5.4460 H   0  0  0  0  0  0  0  0  0  0  0  0
  -11.0479   -8.3627    6.6925 H   0  0  0  0  0  0  0  0  0  0  0  0
   -9.6530  -11.2326    5.9718 H   0  0  0  0  0  0  0  0  0  0  0  0
   -9.5106  -12.5847    5.2011 H   0  0  0  0  0  0  0  0  0  0  0  0
  -10.8181  -12.7251    6.5166 H   0  0  0  0  0  0  0  0  0  0  0  0
   -8.5882  -14.2354    7.2239 H   0  0  0  0  0  0  0  0  0  0  0  0
   -9.0356  -13.9746    6.3723 H   0  0  0  0  0  0  0  0  0  0  0  0
  -12.0973  -16.7877    8.4928 H   0  0  0  0  0  0  0  0  0  0  0  0
  -10.6687  -19.2965    8.7284 H   0  0  0  0  0  0  0  0  0  0  0  0
  -10.0882  -20.3606    6.0955 H   0  0  0  0  0  0  0  0  0  0  0  0
  -11.8296  -16.2954    4.6321 H   0  0  0  0  0  0  0  0  0  0  0  0
   -7.1321   -8.0781    8.9995 H   0  0  0  0  0  0  0  0  0  0  0  0
  1  2  1  0
  2  3  1  0
  3  4  2  0
  4  5  1  0
  5  6  2  0
  6  7  1  0
  7  8  2  0
  7  9  1  0
  9 10  1  0
 10 11  1  0
 11 12  1  0
 12 13  2  0
 12 14  1  0
 14 15  1  0
 14 16  1  0
 16 17  1  0
 17 18  2  0
 18 19  1  0
 19 20  2  0
 20 21  1  0
 21 22  2  0
 11 23  2  0
  8  3  1  0
 22 17  1  0
 23  6  1  0
  1 24  1  0
  1 25  1  0
  1 26  1  0
  4 27  1  0
  5 28  1  0
  8 29  1  0
 10 30  1  0
 10 31  1  0
 15 32  1  0
 15 33  1  0
 15 34  1  0
 16 35  1  0
 16 36  1  0
 18 37  1  0
 19 38  1  0
 20 39  1  0
 22 40  1  0
 23 41  1  0
M  END
>  <Energy>  (226) 
1093.3156683552431

>  <compound_id>  (226) 
14386

>  <target_id>  (226) 
1

>  <reference_id>  (226) 
48

>  <inspiration_ids>  (226) 
[91, 48]

>  <energy_score>  (226) 
1033.518819253148

>  <distance_score>  (226) 
7.388869270886769

>  <path>  (226) 
/opt/xchem-fragalysis-2/maxwin/BulkDock/SCRATCH/511014/C14386-P48/C14386-P48.minimised.mol

>  <scratch_subdir>  (226) 
/opt/xchem-fragalysis-2/maxwin/BulkDock/SCRATCH/511014/C14386-P48

>  <fragmenstein_runtime>  (226) 
12.764679193496704

>  <fragmenstein_outcome>  (226) 
too moved

>  <fragmenstein_mode>  (226) 
expansion

>  <fragmenstein_error>  (226) 


$$$$
C14387-P48
     RDKit          3D

 33 35  0  0  0  0  0  0  0  0999 V2000
   -9.4155  -12.9560    8.7398 O   0  0  0  0  0  0  0  0  0  0  0  0
   -9.4788  -13.0169    7.5029 C   0  0  0  0  0  0  0  0  0  0  0  0
   -9.7189  -14.3797    7.1168 O   0  0  0  0  0  0  0  0  0  0  0  0
  -11.1911  -15.7011    6.8764 C   0  0  0  0  0  0  0  0  0  0  0  0
  -11.4567  -17.1829    7.8454 C   0  0  0  0  0  0  0  0  0  0  0  0
  -10.2611  -18.6083    8.0481 C   0  0  0  0  0  0  0  0  0  0  0  0
  -10.1389  -19.8905    7.6514 C   0  0  0  0  0  0  0  0  0  0  0  0
  -11.1661  -20.1400    8.3986 C   0  0  0  0  0  0  0  0  0  0  0  0
  -12.0469  -18.8856    9.2050 N   0  0  0  0  0  0  0  0  0  0  0  0
  -12.2087  -17.4882    9.0145 C   0  0  0  0  0  0  0  0  0  0  0  0
   -9.3982  -11.0650    6.6836 C   0  0  0  0  0  0  0  0  0  0  0  0
   -9.6903   -9.9618    5.3101 C   0  0  0  0  0  0  0  0  0  0  0  0
  -10.2099   -8.0715    4.9779 C   0  0  0  0  0  0  0  0  0  0  0  0
  -10.5121   -7.1503    3.8089 C   0  0  0  0  0  0  0  0  0  0  0  0
  -10.5169   -5.7079    3.8749 C   0  0  0  0  0  0  0  0  0  0  0  0
   -9.9876   -5.0524    5.0253 C   0  0  0  0  0  0  0  0  0  0  0  0
   -9.6786   -5.8581    6.1352 C   0  0  0  0  0  0  0  0  0  0  0  0
  -10.0690   -7.2932    6.0755 C   0  0  0  0  0  0  0  0  0  0  0  0
   -9.8889   -8.4071    6.7322 O   0  0  0  0  0  0  0  0  0  0  0  0
   -9.5280   -9.5163    7.8078 C   0  0  0  0  0  0  0  0  0  0  0  0
  -12.1333  -15.1268    6.7756 H   0  0  0  0  0  0  0  0  0  0  0  0
  -11.1240  -16.0926    5.8496 H   0  0  0  0  0  0  0  0  0  0  0  0
  -10.1946  -18.6906    9.1419 H   0  0  0  0  0  0  0  0  0  0  0  0
  -10.0270  -20.3325    6.6805 H   0  0  0  0  0  0  0  0  0  0  0  0
  -11.5337  -21.1554    8.5403 H   0  0  0  0  0  0  0  0  0  0  0  0
  -12.9344  -17.0029    9.5942 H   0  0  0  0  0  0  0  0  0  0  0  0
   -9.5515  -10.4697    4.3564 H   0  0  0  0  0  0  0  0  0  0  0  0
  -10.5154   -7.5135    2.7811 H   0  0  0  0  0  0  0  0  0  0  0  0
  -10.7235   -5.1291    2.9777 H   0  0  0  0  0  0  0  0  0  0  0  0
   -9.7356   -3.9979    5.0138 H   0  0  0  0  0  0  0  0  0  0  0  0
   -9.1038   -5.4443    6.9572 H   0  0  0  0  0  0  0  0  0  0  0  0
  -10.3160   -9.5206    8.5379 H   0  0  0  0  0  0  0  0  0  0  0  0
   -8.6790   -8.9474    8.2427 H   0  0  0  0  0  0  0  0  0  0  0  0
  1  2  2  0
  2  3  1  0
  3  4  1  0
  4  5  1  0
  5  6  2  0
  6  7  1  0
  7  8  2  0
  8  9  1  0
  9 10  2  0
  2 11  1  0
 11 12  2  0
 12 13  1  0
 13 14  2  0
 14 15  1  0
 15 16  2  0
 16 17  1  0
 17 18  2  0
 18 19  1  0
 19 20  1  0
 10  5  1  0
 20 11  1  0
 18 13  1  0
  4 21  1  0
  4 22  1  0
  6 23  1  0
  7 24  1  0
  8 25  1  0
 10 26  1  0
 12 27  1  0
 14 28  1  0
 15 29  1  0
 16 30  1  0
 17 31  1  0
 20 32  1  0
 20 33  1  0
M  END
>  <Energy>  (227) 
957.63731905779002

>  <compound_id>  (227) 
14387

>  <target_id>  (227) 
1

>  <reference_id>  (227) 
48

>  <inspiration_ids>  (227) 
[91, 48]

>  <energy_score>  (227) 
905.4772735210008

>  <distance_score>  (227) 
8.297171895900934

>  <path>  (227) 
/opt/xchem-fragalysis-2/maxwin/BulkDock/SCRATCH/511014/C14387-P48/C14387-P48.minimised.mol

>  <scratch_subdir>  (227) 
/opt/xchem-fragalysis-2/maxwin/BulkDock/SCRATCH/511014/C14387-P48

>  <fragmenstein_runtime>  (227) 
8.801063537597656

>  <fragmenstein_outcome>  (227) 
too moved

>  <fragmenstein_mode>  (227) 
expansion

>  <fragmenstein_error>  (227) 


$$$$
C14369-P48
     RDKit          3D

 33 35  0  0  0  0  0  0  0  0999 V2000
   -9.2910  -10.6443    7.2900 O   0  0  0  0  0  0  0  0  0  0  0  0
   -9.5433  -10.9218    6.0851 C   0  0  0  0  0  0  0  0  0  0  0  0
   -9.8172  -12.4393    5.9446 O   0  0  0  0  0  0  0  0  0  0  0  0
   -9.6982  -13.8897    7.1741 C   0  0  0  0  0  0  0  0  0  0  0  0
  -10.9929  -15.5510    6.7955 C   0  0  0  0  0  0  0  0  0  0  0  0
  -11.3395  -16.8111    7.5759 C   0  0  0  0  0  0  0  0  0  0  0  0
  -11.9720  -17.7557    8.9952 C   0  0  0  0  0  0  0  0  0  0  0  0
  -12.8512  -17.2219    9.6140 C   0  0  0  0  0  0  0  0  0  0  0  0
  -12.8287  -16.3214    8.6825 N   0  0  0  0  0  0  0  0  0  0  0  0
  -12.2253  -15.6188    7.1115 C   0  0  0  0  0  0  0  0  0  0  0  0
   -9.7183   -9.4964    4.6447 C   0  0  0  0  0  0  0  0  0  0  0  0
   -9.7774   -9.3301    2.9502 C   0  0  0  0  0  0  0  0  0  0  0  0
  -10.0342   -7.9198    2.1394 C   0  0  0  0  0  0  0  0  0  0  0  0
   -9.4313   -7.6489    0.9022 C   0  0  0  0  0  0  0  0  0  0  0  0
   -9.2119   -6.3135    0.5365 C   0  0  0  0  0  0  0  0  0  0  0  0
   -8.3772   -6.0373   -0.4717 F   0  0  0  0  0  0  0  0  0  0  0  0
   -9.7384   -5.2501    1.2605 C   0  0  0  0  0  0  0  0  0  0  0  0
  -10.4485   -5.5209    2.4173 C   0  0  0  0  0  0  0  0  0  0  0  0
  -10.5166   -6.8375    2.8752 C   0  0  0  0  0  0  0  0  0  0  0  0
  -11.0225   -7.0620    4.1037 O   0  0  0  0  0  0  0  0  0  0  0  0
  -10.2093   -7.8499    5.0733 C   0  0  0  0  0  0  0  0  0  0  0  0
   -9.6490  -13.4180    8.1722 H   0  0  0  0  0  0  0  0  0  0  0  0
   -8.7390  -14.0090    6.8248 H   0  0  0  0  0  0  0  0  0  0  0  0
  -10.8475  -17.8208    7.7401 H   0  0  0  0  0  0  0  0  0  0  0  0
  -11.5480  -18.7409    9.1059 H   0  0  0  0  0  0  0  0  0  0  0  0
  -13.6165  -17.6934   10.1604 H   0  0  0  0  0  0  0  0  0  0  0  0
  -12.9831  -14.9960    6.6033 H   0  0  0  0  0  0  0  0  0  0  0  0
   -9.4477  -10.1148    2.2588 H   0  0  0  0  0  0  0  0  0  0  0  0
   -8.9588   -8.4366    0.3229 H   0  0  0  0  0  0  0  0  0  0  0  0
   -9.5696   -4.2302    0.9314 H   0  0  0  0  0  0  0  0  0  0  0  0
  -10.8525   -4.7157    3.0177 H   0  0  0  0  0  0  0  0  0  0  0  0
   -9.7842   -7.0166    5.6565 H   0  0  0  0  0  0  0  0  0  0  0  0
  -10.5658   -8.2259    6.0124 H   0  0  0  0  0  0  0  0  0  0  0  0
  1  2  2  0
  2  3  1  0
  3  4  1  0
  4  5  1  0
  5  6  2  0
  6  7  1  0
  7  8  2  0
  8  9  1  0
  9 10  2  0
  2 11  1  0
 11 12  2  0
 12 13  1  0
 13 14  2  0
 14 15  1  0
 15 16  1  0
 15 17  2  0
 17 18  1  0
 18 19  2  0
 19 20  1  0
 20 21  1  0
 10  5  1  0
 21 11  1  0
 19 13  1  0
  4 22  1  0
  4 23  1  0
  6 24  1  0
  7 25  1  0
  8 26  1  0
 10 27  1  0
 12 28  1  0
 14 29  1  0
 17 30  1  0
 18 31  1  0
 21 32  1  0
 21 33  1  0
M  END
>  <Energy>  (228) 
822.14394198260914

>  <compound_id>  (228) 
14369

>  <target_id>  (228) 
1

>  <reference_id>  (228) 
48

>  <inspiration_ids>  (228) 
[91, 48]

>  <energy_score>  (228) 
781.9088922629124

>  <distance_score>  (228) 
9.322806253387979

>  <path>  (228) 
/opt/xchem-fragalysis-2/maxwin/BulkDock/SCRATCH/511014/C14369-P48/C14369-P48.minimised.mol

>  <scratch_subdir>  (228) 
/opt/xchem-fragalysis-2/maxwin/BulkDock/SCRATCH/511014/C14369-P48

>  <fragmenstein_runtime>  (228) 
7.183939456939697

>  <fragmenstein_outcome>  (228) 
too moved

>  <fragmenstein_mode>  (228) 
expansion

>  <fragmenstein_error>  (228) 


$$$$
C14388-P48
     RDKit          3D

 37 39  0  0  0  0  0  0  0  0999 V2000
   -9.0270   -1.8751    4.7509 C   0  0  0  0  0  0  0  0  0  0  0  0
   -9.4542   -3.2292    4.6616 O   0  0  0  0  0  0  0  0  0  0  0  0
   -9.1499   -4.0547    5.7163 C   0  0  0  0  0  0  0  0  0  0  0  0
   -8.1544   -3.7593    6.6340 C   0  0  0  0  0  0  0  0  0  0  0  0
   -7.7462   -4.7693    7.4621 C   0  0  0  0  0  0  0  0  0  0  0  0
   -8.4424   -5.9833    7.4190 C   0  0  0  0  0  0  0  0  0  0  0  0
   -9.5603   -6.4490    6.6211 C   0  0  0  0  0  0  0  0  0  0  0  0
   -9.8069   -5.3522    5.7020 C   0  0  0  0  0  0  0  0  0  0  0  0
   -9.9056   -8.3471    6.6163 C   0  0  0  0  0  0  0  0  0  0  0  0
   -9.4307   -9.6965    7.6973 C   0  0  0  0  0  0  0  0  0  0  0  0
   -9.2479  -11.6282    6.9009 C   0  0  0  0  0  0  0  0  0  0  0  0
   -9.5743  -11.5719    5.7036 O   0  0  0  0  0  0  0  0  0  0  0  0
   -8.8472  -13.5655    7.3180 O   0  0  0  0  0  0  0  0  0  0  0  0
   -7.4337  -15.2108    7.5227 C   0  0  0  0  0  0  0  0  0  0  0  0
   -7.7047  -17.4073    7.4555 C   0  0  0  0  0  0  0  0  0  0  0  0
   -8.4299  -18.3720    5.9767 C   0  0  0  0  0  0  0  0  0  0  0  0
   -9.2860  -19.6021    5.6368 C   0  0  0  0  0  0  0  0  0  0  0  0
   -9.8352  -20.1905    6.6981 C   0  0  0  0  0  0  0  0  0  0  0  0
   -9.3650  -19.7675    7.8748 N   0  0  0  0  0  0  0  0  0  0  0  0
   -8.4708  -18.4686    8.0275 C   0  0  0  0  0  0  0  0  0  0  0  0
   -8.0864   -8.6378    8.5329 C   0  0  0  0  0  0  0  0  0  0  0  0
   -7.6026   -7.3484    8.1834 O   0  0  0  0  0  0  0  0  0  0  0  0
   -9.4978   -1.3232    3.9316 H   0  0  0  0  0  0  0  0  0  0  0  0
   -7.9427   -1.7989    4.6212 H   0  0  0  0  0  0  0  0  0  0  0  0
   -9.3491   -1.4133    5.6904 H   0  0  0  0  0  0  0  0  0  0  0  0
   -7.6090   -2.8247    6.6388 H   0  0  0  0  0  0  0  0  0  0  0  0
   -6.8695   -4.6782    8.0517 H   0  0  0  0  0  0  0  0  0  0  0  0
  -10.3937   -5.5357    4.7925 H   0  0  0  0  0  0  0  0  0  0  0  0
  -10.2700   -8.4326    5.5952 H   0  0  0  0  0  0  0  0  0  0  0  0
   -7.0105  -15.1116    8.5553 H   0  0  0  0  0  0  0  0  0  0  0  0
   -6.5747  -14.7067    6.9550 H   0  0  0  0  0  0  0  0  0  0  0  0
   -8.6437  -17.9795    4.9603 H   0  0  0  0  0  0  0  0  0  0  0  0
   -9.5799  -19.8248    4.6194 H   0  0  0  0  0  0  0  0  0  0  0  0
  -10.5400  -21.0082    6.6846 H   0  0  0  0  0  0  0  0  0  0  0  0
   -9.3966  -18.0631    8.3913 H   0  0  0  0  0  0  0  0  0  0  0  0
   -8.0687   -8.6155    9.6178 H   0  0  0  0  0  0  0  0  0  0  0  0
   -7.1048   -9.0533    8.3083 H   0  0  0  0  0  0  0  0  0  0  0  0
  1  2  1  0
  2  3  1  0
  3  4  2  0
  4  5  1  0
  5  6  2  0
  6  7  1  0
  7  8  2  0
  7  9  1  0
  9 10  2  0
 10 11  1  0
 11 12  2  0
 11 13  1  0
 13 14  1  0
 14 15  1  0
 15 16  2  0
 16 17  1  0
 17 18  2  0
 18 19  1  0
 19 20  2  0
 10 21  1  0
 21 22  1  0
  8  3  1  0
 20 15  1  0
 22  6  1  0
  1 23  1  0
  1 24  1  0
  1 25  1  0
  4 26  1  0
  5 27  1  0
  8 28  1  0
  9 29  1  0
 14 30  1  0
 14 31  1  0
 16 32  1  0
 17 33  1  0
 18 34  1  0
 20 35  1  0
 21 36  1  0
 21 37  1  0
M  END
>  <Energy>  (229) 
1261.8615527889021

>  <compound_id>  (229) 
14388

>  <target_id>  (229) 
1

>  <reference_id>  (229) 
48

>  <inspiration_ids>  (229) 
[91, 48]

>  <energy_score>  (229) 
1203.475686564226

>  <distance_score>  (229) 
7.476273301543101

>  <path>  (229) 
/opt/xchem-fragalysis-2/maxwin/BulkDock/SCRATCH/511014/C14388-P48/C14388-P48.minimised.mol

>  <scratch_subdir>  (229) 
/opt/xchem-fragalysis-2/maxwin/BulkDock/SCRATCH/511014/C14388-P48

>  <fragmenstein_runtime>  (229) 
7.7853991985321045

>  <fragmenstein_outcome>  (229) 
too moved

>  <fragmenstein_mode>  (229) 
expansion

>  <fragmenstein_error>  (229) 


$$$$
C14389-P48
     RDKit          3D

 37 39  0  0  0  0  0  0  0  0999 V2000
   -4.4758   -8.8534    1.9500 C   0  0  0  0  0  0  0  0  0  0  0  0
   -5.0304   -7.8114    1.1606 O   0  0  0  0  0  0  0  0  0  0  0  0
   -6.3178   -7.9811    0.7090 C   0  0  0  0  0  0  0  0  0  0  0  0
   -6.8811   -6.7563    0.3222 C   0  0  0  0  0  0  0  0  0  0  0  0
   -8.2266   -6.6720   -0.0227 C   0  0  0  0  0  0  0  0  0  0  0  0
   -9.0402   -7.8056    0.0628 C   0  0  0  0  0  0  0  0  0  0  0  0
   -8.5064   -9.0497    0.4500 C   0  0  0  0  0  0  0  0  0  0  0  0
   -7.1197   -9.1558    0.6842 C   0  0  0  0  0  0  0  0  0  0  0  0
   -6.6167  -10.3745    1.0698 O   0  0  0  0  0  0  0  0  0  0  0  0
   -7.5378  -11.5157    0.9872 C   0  0  0  0  0  0  0  0  0  0  0  0
   -8.9635  -11.2618    1.5798 C   0  0  0  0  0  0  0  0  0  0  0  0
   -9.3303  -12.4486    2.8169 C   0  0  0  0  0  0  0  0  0  0  0  0
   -8.4798  -13.3636    2.7959 O   0  0  0  0  0  0  0  0  0  0  0  0
  -10.5399  -12.5115    4.1187 O   0  0  0  0  0  0  0  0  0  0  0  0
  -12.5149  -12.7284    4.0364 C   0  0  0  0  0  0  0  0  0  0  0  0
  -13.1318  -14.1942    4.1380 C   0  0  0  0  0  0  0  0  0  0  0  0
  -14.0473  -14.5198    5.1391 C   0  0  0  0  0  0  0  0  0  0  0  0
  -14.6398  -15.7831    5.1694 C   0  0  0  0  0  0  0  0  0  0  0  0
  -14.2655  -16.7324    4.2379 C   0  0  0  0  0  0  0  0  0  0  0  0
  -13.4285  -16.4614    3.2228 N   0  0  0  0  0  0  0  0  0  0  0  0
  -12.9201  -15.2014    3.1803 C   0  0  0  0  0  0  0  0  0  0  0  0
   -9.4251  -10.0731    1.0715 C   0  0  0  0  0  0  0  0  0  0  0  0
   -3.5293   -8.4881    2.3611 H   0  0  0  0  0  0  0  0  0  0  0  0
   -4.2464   -9.7295    1.3366 H   0  0  0  0  0  0  0  0  0  0  0  0
   -5.1189   -9.1069    2.7969 H   0  0  0  0  0  0  0  0  0  0  0  0
   -6.2655   -5.8589    0.3172 H   0  0  0  0  0  0  0  0  0  0  0  0
   -8.6543   -5.7141   -0.3093 H   0  0  0  0  0  0  0  0  0  0  0  0
  -10.1093   -7.6917   -0.1059 H   0  0  0  0  0  0  0  0  0  0  0  0
   -7.0094  -12.3278    1.4904 H   0  0  0  0  0  0  0  0  0  0  0  0
   -7.6232  -11.8137   -0.0666 H   0  0  0  0  0  0  0  0  0  0  0  0
  -12.9988  -12.1129    4.8005 H   0  0  0  0  0  0  0  0  0  0  0  0
  -12.7778  -12.3896    3.0194 H   0  0  0  0  0  0  0  0  0  0  0  0
  -14.3494  -13.7892    5.8830 H   0  0  0  0  0  0  0  0  0  0  0  0
  -15.3811  -16.0164    5.9196 H   0  0  0  0  0  0  0  0  0  0  0  0
  -14.6624  -17.7414    4.2707 H   0  0  0  0  0  0  0  0  0  0  0  0
  -12.3030  -15.0239    2.3015 H   0  0  0  0  0  0  0  0  0  0  0  0
  -10.3579   -9.5770    1.2962 H   0  0  0  0  0  0  0  0  0  0  0  0
  1  2  1  0
  2  3  1  0
  3  4  2  0
  4  5  1  0
  5  6  2  0
  6  7  1  0
  7  8  2  0
  8  9  1  0
  9 10  1  0
 10 11  1  0
 11 12  1  0
 12 13  2  0
 12 14  1  0
 14 15  1  0
 15 16  1  0
 16 17  2  0
 17 18  1  0
 18 19  2  0
 19 20  1  0
 20 21  2  0
 11 22  2  0
  8  3  1  0
 21 16  1  0
 22  7  1  0
  1 23  1  0
  1 24  1  0
  1 25  1  0
  4 26  1  0
  5 27  1  0
  6 28  1  0
 10 29  1  0
 10 30  1  0
 15 31  1  0
 15 32  1  0
 17 33  1  0
 18 34  1  0
 19 35  1  0
 21 36  1  0
 22 37  1  0
M  END
>  <Energy>  (230) 
273.38417785693656

>  <compound_id>  (230) 
14389

>  <target_id>  (230) 
1

>  <reference_id>  (230) 
48

>  <inspiration_ids>  (230) 
[91, 48]

>  <energy_score>  (230) 
202.76936455025685

>  <distance_score>  (230) 
11.315012145113148

>  <path>  (230) 
/opt/xchem-fragalysis-2/maxwin/BulkDock/SCRATCH/511014/C14389-P48/C14389-P48.minimised.mol

>  <scratch_subdir>  (230) 
/opt/xchem-fragalysis-2/maxwin/BulkDock/SCRATCH/511014/C14389-P48

>  <fragmenstein_runtime>  (230) 
8.55182671546936

>  <fragmenstein_outcome>  (230) 
too moved

>  <fragmenstein_mode>  (230) 
expansion

>  <fragmenstein_error>  (230) 


$$$$
C14391-P48
     RDKit          3D

 44 46  0  0  0  0  0  0  0  0999 V2000
  -15.5736  -23.2406   14.5822 C   0  0  0  0  0  0  0  0  0  0  0  0
  -15.1434  -23.4245   13.2450 O   0  0  0  0  0  0  0  0  0  0  0  0
  -16.2090  -23.4289   12.2830 C   0  0  0  0  0  0  0  0  0  0  0  0
  -16.9414  -22.0684   12.1692 C   0  0  0  0  0  0  0  0  0  0  0  0
  -17.4424  -21.5716   10.7630 C   0  0  0  0  0  0  0  0  0  0  0  0
  -17.2386  -20.1063   10.5343 N   0  0  0  0  0  0  0  0  0  0  0  0
  -17.3081  -18.9879   11.4432 C   0  0  0  0  0  0  0  0  0  0  0  0
  -17.4691  -18.9550   12.6305 O   0  0  0  0  0  0  0  0  0  0  0  0
  -17.0358  -17.6140   10.7926 C   0  0  0  0  0  0  0  0  0  0  0  0
  -17.5872  -17.1472    9.6569 C   0  0  0  0  0  0  0  0  0  0  0  0
  -17.5528  -15.6869    9.4078 C   0  0  0  0  0  0  0  0  0  0  0  0
  -18.0282  -15.1496    8.2098 C   0  0  0  0  0  0  0  0  0  0  0  0
  -18.4351  -13.8196    8.1667 C   0  0  0  0  0  0  0  0  0  0  0  0
  -18.3506  -13.0362    9.3146 C   0  0  0  0  0  0  0  0  0  0  0  0
  -17.6891  -13.5010   10.4437 C   0  0  0  0  0  0  0  0  0  0  0  0
  -17.3002  -14.8313   10.4867 C   0  0  0  0  0  0  0  0  0  0  0  0
  -16.8202  -15.2954   11.6783 O   0  0  0  0  0  0  0  0  0  0  0  0
  -16.2324  -16.6130   11.6159 C   0  0  0  0  0  0  0  0  0  0  0  0
  -16.9518  -22.4436    9.6094 C   0  0  0  0  0  0  0  0  0  0  0  0
  -17.7058  -23.5253    9.1384 C   0  0  0  0  0  0  0  0  0  0  0  0
  -17.1843  -24.3870    8.1674 C   0  0  0  0  0  0  0  0  0  0  0  0
  -15.9120  -24.1469    7.6811 C   0  0  0  0  0  0  0  0  0  0  0  0
  -15.1483  -23.1237    8.1021 N   0  0  0  0  0  0  0  0  0  0  0  0
  -15.6853  -22.3199    9.0511 C   0  0  0  0  0  0  0  0  0  0  0  0
  -16.4243  -23.8895   14.8130 H   0  0  0  0  0  0  0  0  0  0  0  0
  -14.7547  -23.5088   15.2505 H   0  0  0  0  0  0  0  0  0  0  0  0
  -15.8412  -22.1957   14.7603 H   0  0  0  0  0  0  0  0  0  0  0  0
  -16.9209  -24.2251   12.5314 H   0  0  0  0  0  0  0  0  0  0  0  0
  -15.7245  -23.7253   11.3537 H   0  0  0  0  0  0  0  0  0  0  0  0
  -16.3537  -21.2894   12.6558 H   0  0  0  0  0  0  0  0  0  0  0  0
  -17.8299  -22.1311   12.8149 H   0  0  0  0  0  0  0  0  0  0  0  0
  -18.5377  -21.6563   10.7788 H   0  0  0  0  0  0  0  0  0  0  0  0
  -17.1776  -19.7585    9.5892 H   0  0  0  0  0  0  0  0  0  0  0  0
  -18.2271  -17.7518    9.0254 H   0  0  0  0  0  0  0  0  0  0  0  0
  -18.2080  -15.7855    7.3474 H   0  0  0  0  0  0  0  0  0  0  0  0
  -18.8955  -13.4188    7.2687 H   0  0  0  0  0  0  0  0  0  0  0  0
  -18.7694  -12.0352    9.3189 H   0  0  0  0  0  0  0  0  0  0  0  0
  -17.5352  -12.8521   11.2981 H   0  0  0  0  0  0  0  0  0  0  0  0
  -16.1292  -16.9439   12.6537 H   0  0  0  0  0  0  0  0  0  0  0  0
  -15.2171  -16.5296   11.2086 H   0  0  0  0  0  0  0  0  0  0  0  0
  -18.7002  -23.7198    9.5350 H   0  0  0  0  0  0  0  0  0  0  0  0
  -17.7629  -25.2285    7.8015 H   0  0  0  0  0  0  0  0  0  0  0  0
  -15.4652  -24.7863    6.9256 H   0  0  0  0  0  0  0  0  0  0  0  0
  -15.0112  -21.5500    9.3857 H   0  0  0  0  0  0  0  0  0  0  0  0
  1  2  1  0
  2  3  1  0
  3  4  1  0
  4  5  1  0
  5  6  1  0
  6  7  1  0
  7  8  2  0
  7  9  1  0
  9 10  2  0
 10 11  1  0
 11 12  2  0
 12 13  1  0
 13 14  2  0
 14 15  1  0
 15 16  2  0
 16 17  1  0
 17 18  1  0
  5 19  1  0
 19 20  2  0
 20 21  1  0
 21 22  2  0
 22 23  1  0
 23 24  2  0
 18  9  1  0
 24 19  1  0
 16 11  1  0
  1 25  1  0
  1 26  1  0
  1 27  1  0
  3 28  1  0
  3 29  1  0
  4 30  1  0
  4 31  1  0
  5 32  1  0
  6 33  1  0
 10 34  1  0
 12 35  1  0
 13 36  1  0
 14 37  1  0
 15 38  1  0
 18 39  1  0
 18 40  1  0
 20 41  1  0
 21 42  1  0
 22 43  1  0
 24 44  1  0
M  END
>  <Energy>  (231) 
50.648875243599036

>  <compound_id>  (231) 
14391

>  <target_id>  (231) 
1

>  <reference_id>  (231) 
48

>  <inspiration_ids>  (231) 
[91, 48]

>  <energy_score>  (231) 
1.9897731236381446

>  <distance_score>  (231) 
13.697572627797317

>  <path>  (231) 
/opt/xchem-fragalysis-2/maxwin/BulkDock/SCRATCH/511014/C14391-P48/C14391-P48.minimised.mol

>  <scratch_subdir>  (231) 
/opt/xchem-fragalysis-2/maxwin/BulkDock/SCRATCH/511014/C14391-P48

>  <fragmenstein_runtime>  (231) 
22.369110822677612

>  <fragmenstein_outcome>  (231) 
too moved

>  <fragmenstein_mode>  (231) 
expansion

>  <fragmenstein_error>  (231) 


$$$$
C14362-P48
     RDKit          3D

 42 45  0  0  0  0  0  0  0  0999 V2000
  -10.2845   -7.6810    4.9543 C   0  0  0  0  0  0  0  0  0  0  0  0
  -10.0387   -8.0379    6.3342 C   0  0  0  0  0  0  0  0  0  0  0  0
   -9.5628   -9.5992    7.6488 C   0  0  0  0  0  0  0  0  0  0  0  0
   -8.9889  -11.5332    7.7777 N   0  0  0  0  0  0  0  0  0  0  0  0
   -9.9587  -12.5950    9.0611 C   0  0  0  0  0  0  0  0  0  0  0  0
   -9.5876  -13.9190    8.5105 C   0  0  0  0  0  0  0  0  0  0  0  0
  -10.4485  -15.2655    7.0596 C   0  0  0  0  0  0  0  0  0  0  0  0
  -11.1653  -17.1107    7.7037 C   0  0  0  0  0  0  0  0  0  0  0  0
   -9.7751  -18.3359    8.2388 C   0  0  0  0  0  0  0  0  0  0  0  0
   -9.3799  -19.9291    8.5366 C   0  0  0  0  0  0  0  0  0  0  0  0
  -10.3727  -20.7613    8.2090 C   0  0  0  0  0  0  0  0  0  0  0  0
  -11.3787  -20.0801    8.4309 N   0  0  0  0  0  0  0  0  0  0  0  0
  -10.9484  -18.6456    8.2531 C   0  0  0  0  0  0  0  0  0  0  0  0
   -9.5048  -13.3199    7.0413 C   0  0  0  0  0  0  0  0  0  0  0  0
   -9.4691   -6.2269    6.6257 C   0  0  0  0  0  0  0  0  0  0  0  0
  -10.0843   -5.0460    6.0918 O   0  0  0  0  0  0  0  0  0  0  0  0
  -10.1263   -5.1059    4.7397 C   0  0  0  0  0  0  0  0  0  0  0  0
   -9.6940   -3.9727    4.0137 C   0  0  0  0  0  0  0  0  0  0  0  0
   -9.7777   -3.9938    2.6303 C   0  0  0  0  0  0  0  0  0  0  0  0
  -10.2844   -5.1343    1.9987 C   0  0  0  0  0  0  0  0  0  0  0  0
  -10.6483   -6.2842    2.7323 C   0  0  0  0  0  0  0  0  0  0  0  0
  -10.5366   -6.3081    4.1314 C   0  0  0  0  0  0  0  0  0  0  0  0
  -10.0180   -8.4059    4.2243 H   0  0  0  0  0  0  0  0  0  0  0  0
  -10.2967   -9.5294    8.4443 H   0  0  0  0  0  0  0  0  0  0  0  0
   -8.7981   -8.9752    8.1853 H   0  0  0  0  0  0  0  0  0  0  0  0
  -10.7039  -11.9963    9.5552 H   0  0  0  0  0  0  0  0  0  0  0  0
   -9.5767  -12.7379   10.1414 H   0  0  0  0  0  0  0  0  0  0  0  0
   -8.6643  -14.0533    9.0901 H   0  0  0  0  0  0  0  0  0  0  0  0
   -9.7094  -14.2740    9.4944 H   0  0  0  0  0  0  0  0  0  0  0  0
  -11.5909  -15.1382    6.7151 H   0  0  0  0  0  0  0  0  0  0  0  0
   -8.6736  -18.0012    8.1045 H   0  0  0  0  0  0  0  0  0  0  0  0
   -8.4298  -20.0434    9.0130 H   0  0  0  0  0  0  0  0  0  0  0  0
  -10.5780  -21.7124    7.7999 H   0  0  0  0  0  0  0  0  0  0  0  0
  -10.4036  -19.2555    6.9698 H   0  0  0  0  0  0  0  0  0  0  0  0
   -9.8382  -12.6775    6.2113 H   0  0  0  0  0  0  0  0  0  0  0  0
   -8.5842  -13.6717    6.6257 H   0  0  0  0  0  0  0  0  0  0  0  0
   -9.2881   -6.1016    7.6577 H   0  0  0  0  0  0  0  0  0  0  0  0
   -8.4232   -5.9412    6.4037 H   0  0  0  0  0  0  0  0  0  0  0  0
   -9.3359   -3.0976    4.5447 H   0  0  0  0  0  0  0  0  0  0  0  0
   -9.4805   -3.1276    2.0472 H   0  0  0  0  0  0  0  0  0  0  0  0
  -10.3653   -5.1511    0.9135 H   0  0  0  0  0  0  0  0  0  0  0  0
  -10.9178   -7.1726    2.1761 H   0  0  0  0  0  0  0  0  0  0  0  0
  1  2  2  0
  2  3  1  0
  3  4  1  0
  4  5  1  0
  5  6  1  0
  6  7  1  0
  7  8  1  0
  8  9  2  0
  9 10  1  0
 10 11  2  0
 11 12  1  0
 12 13  2  0
  7 14  1  0
  2 15  1  0
 15 16  1  0
 16 17  1  0
 17 18  2  0
 18 19  1  0
 19 20  2  0
 20 21  1  0
 21 22  2  0
 22  1  1  0
 14  4  1  0
 22 17  1  0
 13  8  1  0
  1 23  1  0
  3 24  1  0
  3 25  1  0
  5 26  1  0
  5 27  1  0
  6 28  1  0
  6 29  1  0
  7 30  1  0
  9 31  1  0
 10 32  1  0
 11 33  1  0
 13 34  1  0
 14 35  1  0
 14 36  1  0
 15 37  1  0
 15 38  1  0
 18 39  1  0
 19 40  1  0
 20 41  1  0
 21 42  1  0
M  END
>  <Energy>  (232) 
1716.0525441978011

>  <compound_id>  (232) 
14362

>  <target_id>  (232) 
1

>  <reference_id>  (232) 
48

>  <inspiration_ids>  (232) 
[91, 48]

>  <energy_score>  (232) 
1629.380434612697

>  <distance_score>  (232) 
7.4826853319193765

>  <path>  (232) 
/opt/xchem-fragalysis-2/maxwin/BulkDock/SCRATCH/511014/C14362-P48/C14362-P48.minimised.mol

>  <scratch_subdir>  (232) 
/opt/xchem-fragalysis-2/maxwin/BulkDock/SCRATCH/511014/C14362-P48

>  <fragmenstein_runtime>  (232) 
8.260979175567627

>  <fragmenstein_outcome>  (232) 
too moved

>  <fragmenstein_mode>  (232) 
expansion

>  <fragmenstein_error>  (232) 


$$$$
C14393-P48
     RDKit          3D

 41 43  0  0  0  0  0  0  0  0999 V2000
   -9.2979  -13.5877    9.2418 O   0  0  0  0  0  0  0  0  0  0  0  0
   -9.6233  -13.2539    8.0843 C   0  0  0  0  0  0  0  0  0  0  0  0
   -9.1802  -11.0222    7.8158 C   0  0  0  0  0  0  0  0  0  0  0  0
   -8.9394   -9.1179    8.1214 C   0  0  0  0  0  0  0  0  0  0  0  0
   -9.2238   -7.0660    7.6573 C   0  0  0  0  0  0  0  0  0  0  0  0
   -8.3330   -5.6087    7.6022 C   0  0  0  0  0  0  0  0  0  0  0  0
   -8.4549   -4.4082    6.8699 C   0  0  0  0  0  0  0  0  0  0  0  0
   -9.3200   -4.4227    5.8333 C   0  0  0  0  0  0  0  0  0  0  0  0
   -9.9254   -5.6574    5.5680 C   0  0  0  0  0  0  0  0  0  0  0  0
   -9.8989   -6.9259    6.4425 C   0  0  0  0  0  0  0  0  0  0  0  0
  -10.2956   -8.2595    6.2129 O   0  0  0  0  0  0  0  0  0  0  0  0
   -9.8070   -9.4573    7.6544 C   0  0  0  0  0  0  0  0  0  0  0  0
  -10.4498  -14.9335    7.0969 N   0  0  0  0  0  0  0  0  0  0  0  0
  -12.1980  -15.4424    7.0666 C   0  0  0  0  0  0  0  0  0  0  0  0
  -12.5906  -16.5783    8.7937 C   0  0  0  0  0  0  0  0  0  0  0  0
  -12.1029  -17.6881    9.4656 O   0  0  0  0  0  0  0  0  0  0  0  0
  -10.9357  -16.8844    7.6683 C   0  0  0  0  0  0  0  0  0  0  0  0
  -10.2054  -18.8824    7.7330 C   0  0  0  0  0  0  0  0  0  0  0  0
   -9.7750  -19.5648    6.3515 C   0  0  0  0  0  0  0  0  0  0  0  0
  -10.2263  -20.7921    5.8100 C   0  0  0  0  0  0  0  0  0  0  0  0
  -11.0817  -21.5142    6.5846 C   0  0  0  0  0  0  0  0  0  0  0  0
  -11.3548  -21.1249    7.8370 N   0  0  0  0  0  0  0  0  0  0  0  0
  -10.6752  -19.9914    8.3443 C   0  0  0  0  0  0  0  0  0  0  0  0
   -7.9608   -8.7961    8.6585 H   0  0  0  0  0  0  0  0  0  0  0  0
   -7.5151   -5.4311    8.3211 H   0  0  0  0  0  0  0  0  0  0  0  0
   -7.8373   -3.5454    7.0915 H   0  0  0  0  0  0  0  0  0  0  0  0
   -9.4294   -3.5838    5.1585 H   0  0  0  0  0  0  0  0  0  0  0  0
  -10.4505   -5.7489    4.6022 H   0  0  0  0  0  0  0  0  0  0  0  0
  -10.8202   -9.4127    8.1735 H   0  0  0  0  0  0  0  0  0  0  0  0
   -9.4956  -10.2964    6.7111 H   0  0  0  0  0  0  0  0  0  0  0  0
  -12.8356  -14.5774    6.8925 H   0  0  0  0  0  0  0  0  0  0  0  0
  -12.3851  -15.9300    6.0875 H   0  0  0  0  0  0  0  0  0  0  0  0
  -12.8358  -15.9590    9.6082 H   0  0  0  0  0  0  0  0  0  0  0  0
  -13.5708  -16.9239    8.9892 H   0  0  0  0  0  0  0  0  0  0  0  0
  -12.1874  -17.3011   10.3524 H   0  0  0  0  0  0  0  0  0  0  0  0
  -11.4432  -17.1161    6.6719 H   0  0  0  0  0  0  0  0  0  0  0  0
   -9.6911  -17.6682    8.1890 H   0  0  0  0  0  0  0  0  0  0  0  0
   -9.1705  -19.0035    5.6290 H   0  0  0  0  0  0  0  0  0  0  0  0
   -9.9443  -21.1121    4.8159 H   0  0  0  0  0  0  0  0  0  0  0  0
  -11.5309  -22.4439    6.2594 H   0  0  0  0  0  0  0  0  0  0  0  0
   -9.8225  -20.4025    8.9110 H   0  0  0  0  0  0  0  0  0  0  0  0
  1  2  2  0
  2  3  1  0
  3  4  2  0
  4  5  1  0
  5  6  2  0
  6  7  1  0
  7  8  2  0
  8  9  1  0
  9 10  2  0
 10 11  1  0
 11 12  1  0
  2 13  1  0
 13 14  1  0
 14 15  1  0
 15 16  1  0
 13 17  1  0
 17 18  1  0
 18 19  2  0
 19 20  1  0
 20 21  2  0
 21 22  1  0
 22 23  2  0
 12  3  1  0
 23 18  1  0
 10  5  1  0
  4 24  1  0
  6 25  1  0
  7 26  1  0
  8 27  1  0
  9 28  1  0
 12 29  1  0
 12 30  1  0
 14 31  1  0
 14 32  1  0
 15 33  1  0
 15 34  1  0
 16 35  1  0
 17 36  1  0
 17 37  1  0
 19 38  1  0
 20 39  1  0
 21 40  1  0
 23 41  1  0
M  END
>  <Energy>  (233) 
2143.5809260627948

>  <compound_id>  (233) 
14393

>  <target_id>  (233) 
1

>  <reference_id>  (233) 
48

>  <inspiration_ids>  (233) 
[91, 48]

>  <energy_score>  (233) 
2057.39357115502

>  <distance_score>  (233) 
8.169799481306656

>  <path>  (233) 
/opt/xchem-fragalysis-2/maxwin/BulkDock/SCRATCH/511014/C14393-P48/C14393-P48.minimised.mol

>  <scratch_subdir>  (233) 
/opt/xchem-fragalysis-2/maxwin/BulkDock/SCRATCH/511014/C14393-P48

>  <fragmenstein_runtime>  (233) 
9.442829370498657

>  <fragmenstein_outcome>  (233) 
too moved

>  <fragmenstein_mode>  (233) 
expansion

>  <fragmenstein_error>  (233) 


$$$$
C14394-P48
     RDKit          3D

 34 36  0  0  0  0  0  0  0  0999 V2000
   -9.7903   -9.4545    5.2848 C   0  0  0  0  0  0  0  0  0  0  0  0
   -9.4858  -10.7333    6.3428 N   0  0  0  0  0  0  0  0  0  0  0  0
   -9.8609  -12.4450    6.0319 O   0  0  0  0  0  0  0  0  0  0  0  0
   -9.6952  -13.9930    7.1433 C   0  0  0  0  0  0  0  0  0  0  0  0
  -11.0934  -15.6101    6.7339 C   0  0  0  0  0  0  0  0  0  0  0  0
  -11.3508  -16.9435    7.6717 C   0  0  0  0  0  0  0  0  0  0  0  0
  -10.4858  -18.6492    7.9194 C   0  0  0  0  0  0  0  0  0  0  0  0
  -10.2479  -19.3498    6.3760 C   0  0  0  0  0  0  0  0  0  0  0  0
  -10.8820  -18.3762    5.1898 N   0  0  0  0  0  0  0  0  0  0  0  0
  -11.2926  -16.6955    5.4724 C   0  0  0  0  0  0  0  0  0  0  0  0
  -10.1597   -7.5179    5.1871 C   0  0  0  0  0  0  0  0  0  0  0  0
   -9.8536   -6.3645    6.0057 C   0  0  0  0  0  0  0  0  0  0  0  0
   -9.7135   -4.9087    5.6010 C   0  0  0  0  0  0  0  0  0  0  0  0
   -9.1587   -3.9519    6.4785 C   0  0  0  0  0  0  0  0  0  0  0  0
   -8.7570   -2.6941    6.0172 C   0  0  0  0  0  0  0  0  0  0  0  0
   -8.8738   -2.3813    4.6665 C   0  0  0  0  0  0  0  0  0  0  0  0
   -9.4038   -3.3234    3.7818 C   0  0  0  0  0  0  0  0  0  0  0  0
   -9.8312   -4.5764    4.2503 C   0  0  0  0  0  0  0  0  0  0  0  0
  -10.2271   -5.5025    3.3145 O   0  0  0  0  0  0  0  0  0  0  0  0
  -10.6551   -6.8514    3.7453 C   0  0  0  0  0  0  0  0  0  0  0  0
   -9.6666   -9.8088    4.2712 H   0  0  0  0  0  0  0  0  0  0  0  0
   -9.6542  -13.5037    8.1387 H   0  0  0  0  0  0  0  0  0  0  0  0
   -8.7344  -14.0218    6.7848 H   0  0  0  0  0  0  0  0  0  0  0  0
  -12.0964  -16.7921    8.4966 H   0  0  0  0  0  0  0  0  0  0  0  0
  -10.6439  -19.2871    8.7461 H   0  0  0  0  0  0  0  0  0  0  0  0
  -10.0665  -20.3793    6.1275 H   0  0  0  0  0  0  0  0  0  0  0  0
  -11.7861  -16.3525    4.5539 H   0  0  0  0  0  0  0  0  0  0  0  0
   -9.4690   -6.4393    6.9987 H   0  0  0  0  0  0  0  0  0  0  0  0
   -8.9766   -4.1861    7.5250 H   0  0  0  0  0  0  0  0  0  0  0  0
   -8.3290   -1.9762    6.7123 H   0  0  0  0  0  0  0  0  0  0  0  0
   -8.5439   -1.4139    4.2985 H   0  0  0  0  0  0  0  0  0  0  0  0
   -9.4788   -3.0951    2.7226 H   0  0  0  0  0  0  0  0  0  0  0  0
  -10.2955   -7.4730    2.9226 H   0  0  0  0  0  0  0  0  0  0  0  0
  -11.7499   -6.8225    3.7006 H   0  0  0  0  0  0  0  0  0  0  0  0
  1  2  2  3
  2  3  1  0
  3  4  1  0
  4  5  1  0
  5  6  2  0
  6  7  1  0
  7  8  2  0
  8  9  1  0
  9 10  2  0
  1 11  1  0
 11 12  2  0
 12 13  1  0
 13 14  2  0
 14 15  1  0
 15 16  2  0
 16 17  1  0
 17 18  2  0
 18 19  1  0
 19 20  1  0
 10  5  1  0
 20 11  1  0
 18 13  1  0
  1 21  1  0
  4 22  1  0
  4 23  1  0
  6 24  1  0
  7 25  1  0
  8 26  1  0
 10 27  1  0
 12 28  1  0
 14 29  1  0
 15 30  1  0
 16 31  1  0
 17 32  1  0
 20 33  1  0
 20 34  1  0
M  END
>  <Energy>  (234) 
858.28724421735069

>  <compound_id>  (234) 
14394

>  <target_id>  (234) 
1

>  <reference_id>  (234) 
48

>  <inspiration_ids>  (234) 
[91, 48]

>  <energy_score>  (234) 
751.7477624448896

>  <distance_score>  (234) 
7.454293352639536

>  <path>  (234) 
/opt/xchem-fragalysis-2/maxwin/BulkDock/SCRATCH/511014/C14394-P48/C14394-P48.minimised.mol

>  <scratch_subdir>  (234) 
/opt/xchem-fragalysis-2/maxwin/BulkDock/SCRATCH/511014/C14394-P48

>  <fragmenstein_runtime>  (234) 
5.132618188858032

>  <fragmenstein_outcome>  (234) 
too moved

>  <fragmenstein_mode>  (234) 
expansion

>  <fragmenstein_error>  (234) 


$$$$
C14395-P48
     RDKit          3D

 37 40  0  0  0  0  0  0  0  0999 V2000
  -15.1137  -13.4969   10.9856 O   0  0  0  0  0  0  0  0  0  0  0  0
  -15.8251  -13.8532   10.0553 C   0  0  0  0  0  0  0  0  0  0  0  0
  -16.3989  -15.1066    9.9996 N   0  0  0  0  0  0  0  0  0  0  0  0
  -17.0028  -15.3583    8.8924 C   0  0  0  0  0  0  0  0  0  0  0  0
  -17.6709  -16.5097    8.5153 N   0  0  0  0  0  0  0  0  0  0  0  0
  -17.7027  -17.7950    9.1162 C   0  0  0  0  0  0  0  0  0  0  0  0
  -18.2139  -18.8817    8.3778 C   0  0  0  0  0  0  0  0  0  0  0  0
  -18.2016  -20.1847    8.8890 C   0  0  0  0  0  0  0  0  0  0  0  0
  -17.6839  -20.3806   10.1532 C   0  0  0  0  0  0  0  0  0  0  0  0
  -17.1894  -19.3787   10.9086 N   0  0  0  0  0  0  0  0  0  0  0  0
  -17.2043  -18.1196   10.3776 C   0  0  0  0  0  0  0  0  0  0  0  0
  -16.9347  -14.0082    7.6926 S   0  0  0  0  0  0  0  0  0  0  0  0
  -16.1110  -12.9812    8.8080 C   0  0  0  0  0  0  0  0  0  0  0  0
  -15.6670  -11.6919    8.7407 C   0  0  0  0  0  0  0  0  0  0  0  0
  -15.3804  -10.5260    7.7676 C   0  0  0  0  0  0  0  0  0  0  0  0
  -14.6770   -9.5035    8.3135 C   0  0  0  0  0  0  0  0  0  0  0  0
  -13.4660   -9.1579    7.5422 C   0  0  0  0  0  0  0  0  0  0  0  0
  -12.1204   -9.4297    8.2840 C   0  0  0  0  0  0  0  0  0  0  0  0
  -10.3536   -9.3019    7.5483 C   0  0  0  0  0  0  0  0  0  0  0  0
  -10.5605   -8.7100    5.8215 C   0  0  0  0  0  0  0  0  0  0  0  0
  -12.1636   -8.8422    5.0863 C   0  0  0  0  0  0  0  0  0  0  0  0
  -13.4920   -9.0207    6.0410 C   0  0  0  0  0  0  0  0  0  0  0  0
  -14.7080   -9.4237    5.4891 O   0  0  0  0  0  0  0  0  0  0  0  0
  -15.3144  -10.5919    6.2168 C   0  0  0  0  0  0  0  0  0  0  0  0
  -18.0695  -16.4787    7.5846 H   0  0  0  0  0  0  0  0  0  0  0  0
  -18.6120  -18.7261    7.3776 H   0  0  0  0  0  0  0  0  0  0  0  0
  -18.5885  -21.0162    8.3111 H   0  0  0  0  0  0  0  0  0  0  0  0
  -17.6512  -21.3666   10.6062 H   0  0  0  0  0  0  0  0  0  0  0  0
  -16.7692  -17.3670   11.0293 H   0  0  0  0  0  0  0  0  0  0  0  0
  -15.2457  -11.4000    9.7137 H   0  0  0  0  0  0  0  0  0  0  0  0
  -14.6009   -9.3463    9.3843 H   0  0  0  0  0  0  0  0  0  0  0  0
  -12.2193   -9.6646    9.3737 H   0  0  0  0  0  0  0  0  0  0  0  0
   -9.4448   -9.4864    8.0165 H   0  0  0  0  0  0  0  0  0  0  0  0
   -9.8973   -8.8335    5.0042 H   0  0  0  0  0  0  0  0  0  0  0  0
  -12.2442   -8.8103    4.0056 H   0  0  0  0  0  0  0  0  0  0  0  0
  -14.7784  -11.4901    5.8892 H   0  0  0  0  0  0  0  0  0  0  0  0
  -16.3395  -10.6594    5.8367 H   0  0  0  0  0  0  0  0  0  0  0  0
  1  2  2  0
  2  3  1  0
  3  4  2  0
  4  5  1  0
  5  6  1  0
  6  7  2  0
  7  8  1  0
  8  9  2  0
  9 10  1  0
 10 11  2  0
  4 12  1  0
 12 13  1  0
 13 14  2  3
 14 15  1  0
 15 16  2  0
 16 17  1  0
 17 18  2  0
 18 19  1  0
 19 20  2  0
 20 21  1  0
 21 22  2  0
 22 23  1  0
 23 24  1  0
 13  2  1  0
 24 15  1  0
 11  6  1  0
 22 17  1  0
  5 25  1  0
  7 26  1  0
  8 27  1  0
  9 28  1  0
 11 29  1  0
 14 30  1  0
 16 31  1  0
 18 32  1  0
 19 33  1  0
 20 34  1  0
 21 35  1  0
 24 36  1  0
 24 37  1  0
M  END
>  <Energy>  (235) 
299.24245356430242

>  <compound_id>  (235) 
14395

>  <target_id>  (235) 
1

>  <reference_id>  (235) 
48

>  <inspiration_ids>  (235) 
[91, 48]

>  <energy_score>  (235) 
217.01208772776744

>  <distance_score>  (235) 
10.81349770007494

>  <path>  (235) 
/opt/xchem-fragalysis-2/maxwin/BulkDock/SCRATCH/511014/C14395-P48/C14395-P48.minimised.mol

>  <scratch_subdir>  (235) 
/opt/xchem-fragalysis-2/maxwin/BulkDock/SCRATCH/511014/C14395-P48

>  <fragmenstein_runtime>  (235) 
8.642034769058228

>  <fragmenstein_outcome>  (235) 
too moved

>  <fragmenstein_mode>  (235) 
expansion

>  <fragmenstein_error>  (235) 


$$$$
C14373-P48
     RDKit          3D

 49 54  0  0  0  0  0  0  0  0999 V2000
  -10.1459   -8.8335   14.4338 O   0  0  0  0  0  0  0  0  0  0  0  0
   -9.1171   -9.1769   13.9422 C   0  0  0  0  0  0  0  0  0  0  0  0
   -8.4214   -8.8654   12.7363 C   0  0  0  0  0  0  0  0  0  0  0  0
   -9.3624   -8.4309   11.2856 C   0  0  0  0  0  0  0  0  0  0  0  0
   -9.9815   -6.0581   11.2512 C   0  0  0  0  0  0  0  0  0  0  0  0
   -9.5676   -4.9566   10.1686 C   0  0  0  0  0  0  0  0  0  0  0  0
   -8.9798   -4.1613    8.8959 C   0  0  0  0  0  0  0  0  0  0  0  0
   -8.4046   -4.2858    7.6500 C   0  0  0  0  0  0  0  0  0  0  0  0
   -8.2085   -3.1043    6.8919 C   0  0  0  0  0  0  0  0  0  0  0  0
   -8.6209   -1.8176    7.3508 C   0  0  0  0  0  0  0  0  0  0  0  0
   -9.2297   -1.6583    8.5925 C   0  0  0  0  0  0  0  0  0  0  0  0
   -9.2975   -2.8484    9.3040 C   0  0  0  0  0  0  0  0  0  0  0  0
  -10.0546   -3.0655   10.8958 O   0  0  0  0  0  0  0  0  0  0  0  0
   -9.5312   -4.5888   11.9161 C   0  0  0  0  0  0  0  0  0  0  0  0
  -10.0103  -10.3807   12.1148 C   0  0  0  0  0  0  0  0  0  0  0  0
   -9.3269  -10.8737   13.4879 C   0  0  0  0  0  0  0  0  0  0  0  0
   -9.1294  -12.1325   14.2586 C   0  0  0  0  0  0  0  0  0  0  0  0
   -9.2148  -13.4639   13.9932 C   0  0  0  0  0  0  0  0  0  0  0  0
   -9.7754  -13.7395   12.8551 C   0  0  0  0  0  0  0  0  0  0  0  0
  -10.0810  -12.3546   11.8974 C   0  0  0  0  0  0  0  0  0  0  0  0
  -11.1774  -13.9163   11.7291 O   0  0  0  0  0  0  0  0  0  0  0  0
  -11.0533  -15.8812   11.9330 C   0  0  0  0  0  0  0  0  0  0  0  0
  -11.4246  -17.0494   10.4604 C   0  0  0  0  0  0  0  0  0  0  0  0
  -11.0382  -18.6080    9.1044 C   0  0  0  0  0  0  0  0  0  0  0  0
  -11.1662  -20.0927    8.4681 C   0  0  0  0  0  0  0  0  0  0  0  0
  -10.8052  -20.8541    7.2085 C   0  0  0  0  0  0  0  0  0  0  0  0
  -10.0524  -20.2502    6.2761 C   0  0  0  0  0  0  0  0  0  0  0  0
   -9.4858  -19.1444    6.6910 N   0  0  0  0  0  0  0  0  0  0  0  0
   -9.9206  -18.5694    7.9676 C   0  0  0  0  0  0  0  0  0  0  0  0
  -10.2101  -15.5343   12.9741 C   0  0  0  0  0  0  0  0  0  0  0  0
   -9.7810  -16.5533   13.4872 O   0  0  0  0  0  0  0  0  0  0  0  0
   -8.4404  -10.1831   14.3122 O   0  0  0  0  0  0  0  0  0  0  0  0
   -7.4900   -8.4263   13.0357 H   0  0  0  0  0  0  0  0  0  0  0  0
   -8.2417   -9.7556   12.3088 H   0  0  0  0  0  0  0  0  0  0  0  0
   -8.5867   -8.7126   10.5453 H   0  0  0  0  0  0  0  0  0  0  0  0
  -10.1662   -5.3042    9.4037 H   0  0  0  0  0  0  0  0  0  0  0  0
   -8.1306   -5.2390    7.2240 H   0  0  0  0  0  0  0  0  0  0  0  0
   -7.7558   -3.1870    5.9049 H   0  0  0  0  0  0  0  0  0  0  0  0
   -8.4732   -0.9522    6.7098 H   0  0  0  0  0  0  0  0  0  0  0  0
   -9.5846   -0.7208    8.9889 H   0  0  0  0  0  0  0  0  0  0  0  0
   -9.8278   -4.4421   12.9728 H   0  0  0  0  0  0  0  0  0  0  0  0
   -8.4580   -4.5815   12.1142 H   0  0  0  0  0  0  0  0  0  0  0  0
   -8.7915  -11.9672   15.2732 H   0  0  0  0  0  0  0  0  0  0  0  0
   -8.9048  -14.2430   14.6473 H   0  0  0  0  0  0  0  0  0  0  0  0
  -10.4269  -17.7959   10.4012 H   0  0  0  0  0  0  0  0  0  0  0  0
  -11.7104  -20.9142    8.9128 H   0  0  0  0  0  0  0  0  0  0  0  0
  -11.1748  -21.8660    7.0614 H   0  0  0  0  0  0  0  0  0  0  0  0
   -9.7846  -20.6598    5.3150 H   0  0  0  0  0  0  0  0  0  0  0  0
   -8.9795  -18.0819    8.1403 H   0  0  0  0  0  0  0  0  0  0  0  0
  1  2  2  0
  2  3  1  0
  3  4  1  0
  4  5  1  0
  5  6  2  0
  6  7  1  0
  7  8  2  0
  8  9  1  0
  9 10  2  0
 10 11  1  0
 11 12  2  0
 12 13  1  0
 13 14  1  0
  4 15  1  0
 15 16  2  0
 16 17  1  0
 17 18  2  0
 18 19  1  0
 19 20  2  0
 20 21  1  0
 21 22  1  0
 22 23  2  3
 23 24  1  0
 24 25  2  0
 25 26  1  0
 26 27  2  0
 27 28  1  0
 28 29  2  0
 22 30  1  0
 30 31  2  0
 16 32  1  0
 32  2  1  0
 14  5  1  0
 20 15  1  0
 29 24  1  0
 12  7  1  0
 30 19  1  0
  3 33  1  0
  3 34  1  0
  4 35  1  0
  6 36  1  0
  8 37  1  0
  9 38  1  0
 10 39  1  0
 11 40  1  0
 14 41  1  0
 14 42  1  0
 17 43  1  0
 18 44  1  0
 23 45  1  0
 25 46  1  0
 26 47  1  0
 27 48  1  0
 29 49  1  0
M  END
>  <Energy>  (236) 
2363.2211950111091

>  <compound_id>  (236) 
14373

>  <target_id>  (236) 
1

>  <reference_id>  (236) 
48

>  <inspiration_ids>  (236) 
[91, 48]

>  <energy_score>  (236) 
2215.0845490489774

>  <distance_score>  (236) 
6.838356552433356

>  <path>  (236) 
/opt/xchem-fragalysis-2/maxwin/BulkDock/SCRATCH/511014/C14373-P48/C14373-P48.minimised.mol

>  <scratch_subdir>  (236) 
/opt/xchem-fragalysis-2/maxwin/BulkDock/SCRATCH/511014/C14373-P48

>  <fragmenstein_runtime>  (236) 
14.484503984451294

>  <fragmenstein_outcome>  (236) 
too moved

>  <fragmenstein_mode>  (236) 
expansion

>  <fragmenstein_error>  (236) 


$$$$
C14397-P48
     RDKit          3D

 37 39  0  0  0  0  0  0  0  0999 V2000
   -9.0003  -13.7528    9.0450 C   0  0  0  0  0  0  0  0  0  0  0  0
   -9.4969  -12.7873    8.3414 N   0  0  0  0  0  0  0  0  0  0  0  0
   -8.8666  -11.0283    7.9260 C   0  0  0  0  0  0  0  0  0  0  0  0
   -7.7707  -10.9102    8.3358 O   0  0  0  0  0  0  0  0  0  0  0  0
   -9.4868   -9.1945    7.3273 C   0  0  0  0  0  0  0  0  0  0  0  0
   -8.6499   -7.9970    8.1437 C   0  0  0  0  0  0  0  0  0  0  0  0
   -8.3313   -6.0631    7.4955 C   0  0  0  0  0  0  0  0  0  0  0  0
   -7.5574   -4.9938    7.9695 C   0  0  0  0  0  0  0  0  0  0  0  0
   -7.4281   -3.7221    7.3236 C   0  0  0  0  0  0  0  0  0  0  0  0
   -8.2461   -3.3628    6.2919 C   0  0  0  0  0  0  0  0  0  0  0  0
   -9.1561   -4.3030    5.9152 C   0  0  0  0  0  0  0  0  0  0  0  0
   -9.1336   -5.5967    6.4921 C   0  0  0  0  0  0  0  0  0  0  0  0
   -9.9828   -6.5078    6.0541 O   0  0  0  0  0  0  0  0  0  0  0  0
  -10.1820   -8.0231    5.8588 C   0  0  0  0  0  0  0  0  0  0  0  0
  -10.6484   -7.2066    4.1517 C   0  0  0  0  0  0  0  0  0  0  0  0
  -10.2122   -7.8144    3.0092 F   0  0  0  0  0  0  0  0  0  0  0  0
  -10.3464   -5.8903    3.9335 F   0  0  0  0  0  0  0  0  0  0  0  0
   -9.2091  -14.2766    7.1255 C   0  0  0  0  0  0  0  0  0  0  0  0
  -10.8000  -15.4989    6.9069 C   0  0  0  0  0  0  0  0  0  0  0  0
  -11.1328  -17.0488    7.6363 C   0  0  0  0  0  0  0  0  0  0  0  0
   -9.4715  -18.0259    8.1947 C   0  0  0  0  0  0  0  0  0  0  0  0
   -7.8029  -17.1633    8.0332 N   0  0  0  0  0  0  0  0  0  0  0  0
   -7.4776  -15.3301    7.5616 C   0  0  0  0  0  0  0  0  0  0  0  0
   -8.0253  -14.2812    9.2721 H   0  0  0  0  0  0  0  0  0  0  0  0
   -8.5775  -13.0940    9.8313 H   0  0  0  0  0  0  0  0  0  0  0  0
   -9.8372  -13.7347    9.7567 H   0  0  0  0  0  0  0  0  0  0  0  0
   -9.3116   -7.1508    7.8596 H   0  0  0  0  0  0  0  0  0  0  0  0
   -7.0166   -5.1907    8.8802 H   0  0  0  0  0  0  0  0  0  0  0  0
   -6.7036   -2.9747    7.6288 H   0  0  0  0  0  0  0  0  0  0  0  0
   -8.1857   -2.3938    5.8143 H   0  0  0  0  0  0  0  0  0  0  0  0
   -9.8232   -4.0925    5.0912 H   0  0  0  0  0  0  0  0  0  0  0  0
   -9.8647   -8.7642    5.1255 H   0  0  0  0  0  0  0  0  0  0  0  0
  -11.7399   -7.1417    4.0274 H   0  0  0  0  0  0  0  0  0  0  0  0
  -11.8316  -15.1298    6.6054 H   0  0  0  0  0  0  0  0  0  0  0  0
  -11.9966  -17.0231    8.3403 H   0  0  0  0  0  0  0  0  0  0  0  0
   -9.4363  -19.1276    8.1254 H   0  0  0  0  0  0  0  0  0  0  0  0
   -6.6447  -14.9446    8.2105 H   0  0  0  0  0  0  0  0  0  0  0  0
  1  2  1  0
  2  3  1  0
  3  4  2  0
  3  5  1  0
  5  6  2  0
  6  7  1  0
  7  8  2  0
  8  9  1  0
  9 10  2  0
 10 11  1  0
 11 12  2  0
 12 13  1  0
 13 14  1  0
 14 15  1  0
 15 16  1  0
 15 17  1  0
  2 18  1  0
 18 19  2  0
 19 20  1  0
 20 21  2  0
 21 22  1  0
 22 23  2  0
 14  5  1  0
 23 18  1  0
 12  7  1  0
  1 24  1  0
  1 25  1  0
  1 26  1  0
  6 27  1  0
  8 28  1  0
  9 29  1  0
 10 30  1  0
 11 31  1  0
 14 32  1  0
 15 33  1  0
 19 34  1  0
 20 35  1  0
 21 36  1  0
 23 37  1  0
M  END
>  <Energy>  (237) 
1614.0810841482751

>  <compound_id>  (237) 
14397

>  <target_id>  (237) 
1

>  <reference_id>  (237) 
48

>  <inspiration_ids>  (237) 
[91, 48]

>  <energy_score>  (237) 
1482.7863528904982

>  <distance_score>  (237) 
8.148955124723805

>  <path>  (237) 
/opt/xchem-fragalysis-2/maxwin/BulkDock/SCRATCH/511014/C14397-P48/C14397-P48.minimised.mol

>  <scratch_subdir>  (237) 
/opt/xchem-fragalysis-2/maxwin/BulkDock/SCRATCH/511014/C14397-P48

>  <fragmenstein_runtime>  (237) 
6.524889945983887

>  <fragmenstein_outcome>  (237) 
too moved

>  <fragmenstein_mode>  (237) 
expansion

>  <fragmenstein_error>  (237) 


$$$$
C14398-P48
     RDKit          3D

 34 36  0  0  0  0  0  0  0  0999 V2000
  -10.7537   -9.7202   -0.5275 O   0  0  0  0  0  0  0  0  0  0  0  0
   -9.6961   -9.7417    0.0401 C   0  0  0  0  0  0  0  0  0  0  0  0
   -8.9201  -10.8577    0.5581 N   0  0  0  0  0  0  0  0  0  0  0  0
   -9.2198  -12.2547    0.6344 C   0  0  0  0  0  0  0  0  0  0  0  0
  -10.4293  -12.8358    0.2526 C   0  0  0  0  0  0  0  0  0  0  0  0
  -10.6494  -14.2186    0.4147 C   0  0  0  0  0  0  0  0  0  0  0  0
   -9.6363  -15.0054    0.9372 C   0  0  0  0  0  0  0  0  0  0  0  0
   -8.4421  -14.5045    1.3130 N   0  0  0  0  0  0  0  0  0  0  0  0
   -8.2810  -13.1529    1.1653 C   0  0  0  0  0  0  0  0  0  0  0  0
   -9.0612   -8.3612    0.3171 C   0  0  0  0  0  0  0  0  0  0  0  0
   -9.8169   -7.4303    0.9483 C   0  0  0  0  0  0  0  0  0  0  0  0
   -9.2434   -6.1046    1.2585 C   0  0  0  0  0  0  0  0  0  0  0  0
   -9.9818   -5.1019    1.8996 C   0  0  0  0  0  0  0  0  0  0  0  0
   -9.3580   -3.9192    2.3308 C   0  0  0  0  0  0  0  0  0  0  0  0
   -7.9917   -3.7231    2.1311 C   0  0  0  0  0  0  0  0  0  0  0  0
   -7.2481   -4.7109    1.4905 C   0  0  0  0  0  0  0  0  0  0  0  0
   -7.8755   -5.8860    1.0527 C   0  0  0  0  0  0  0  0  0  0  0  0
   -7.0636   -6.8541    0.5293 O   0  0  0  0  0  0  0  0  0  0  0  0
   -7.7189   -7.9079   -0.2422 C   0  0  0  0  0  0  0  0  0  0  0  0
   -6.6640   -8.9973   -0.4464 C   0  0  0  0  0  0  0  0  0  0  0  0
   -6.5561   -9.7643    0.6744 F   0  0  0  0  0  0  0  0  0  0  0  0
   -7.0305   -9.8326   -1.4486 F   0  0  0  0  0  0  0  0  0  0  0  0
   -8.0332  -10.5119    0.9049 H   0  0  0  0  0  0  0  0  0  0  0  0
  -11.2278  -12.2238   -0.1589 H   0  0  0  0  0  0  0  0  0  0  0  0
  -11.5997  -14.6587    0.1331 H   0  0  0  0  0  0  0  0  0  0  0  0
   -9.7672  -16.0734    1.0758 H   0  0  0  0  0  0  0  0  0  0  0  0
   -7.3107  -12.7945    1.4989 H   0  0  0  0  0  0  0  0  0  0  0  0
  -10.8284   -7.6406    1.2791 H   0  0  0  0  0  0  0  0  0  0  0  0
  -11.0403   -5.2432    2.1140 H   0  0  0  0  0  0  0  0  0  0  0  0
   -9.9456   -3.1622    2.8454 H   0  0  0  0  0  0  0  0  0  0  0  0
   -7.5117   -2.8126    2.4800 H   0  0  0  0  0  0  0  0  0  0  0  0
   -6.1789   -4.5783    1.3457 H   0  0  0  0  0  0  0  0  0  0  0  0
   -7.9169   -7.4802   -1.2354 H   0  0  0  0  0  0  0  0  0  0  0  0
   -5.6757   -8.5867   -0.6730 H   0  0  0  0  0  0  0  0  0  0  0  0
  1  2  2  0
  2  3  1  0
  3  4  1  0
  4  5  2  0
  5  6  1  0
  6  7  2  0
  7  8  1  0
  8  9  2  0
  2 10  1  0
 10 11  2  0
 11 12  1  0
 12 13  2  0
 13 14  1  0
 14 15  2  0
 15 16  1  0
 16 17  2  0
 17 18  1  0
 18 19  1  0
 19 20  1  0
 20 21  1  0
 20 22  1  0
  9  4  1  0
 19 10  1  0
 17 12  1  0
  3 23  1  0
  5 24  1  0
  6 25  1  0
  7 26  1  0
  9 27  1  0
 11 28  1  0
 13 29  1  0
 14 30  1  0
 15 31  1  0
 16 32  1  0
 19 33  1  0
 20 34  1  0
M  END
>  <Energy>  (238) 
68.821982007496061

>  <compound_id>  (238) 
14398

>  <target_id>  (238) 
1

>  <reference_id>  (238) 
48

>  <inspiration_ids>  (238) 
[91, 48]

>  <energy_score>  (238) 
-31.817376187949804

>  <distance_score>  (238) 
11.593642338929824

>  <path>  (238) 
/opt/xchem-fragalysis-2/maxwin/BulkDock/SCRATCH/511014/C14398-P48/C14398-P48.minimised.mol

>  <scratch_subdir>  (238) 
/opt/xchem-fragalysis-2/maxwin/BulkDock/SCRATCH/511014/C14398-P48

>  <fragmenstein_runtime>  (238) 
11.155779838562012

>  <fragmenstein_outcome>  (238) 
too moved

>  <fragmenstein_mode>  (238) 
expansion

>  <fragmenstein_error>  (238) 


$$$$
C14384-P48
     RDKit          3D

 37 39  0  0  0  0  0  0  0  0999 V2000
  -10.4204   -3.8614    6.4156 C   0  0  0  0  0  0  0  0  0  0  0  0
  -10.3139   -5.2590    5.2071 C   0  0  0  0  0  0  0  0  0  0  0  0
   -9.4915   -4.5481    4.1731 O   0  0  0  0  0  0  0  0  0  0  0  0
   -8.3840   -4.0051    4.7996 C   0  0  0  0  0  0  0  0  0  0  0  0
   -7.6835   -2.9575    4.2059 C   0  0  0  0  0  0  0  0  0  0  0  0
   -6.5829   -2.4191    4.8694 C   0  0  0  0  0  0  0  0  0  0  0  0
   -6.2046   -2.9345    6.1075 C   0  0  0  0  0  0  0  0  0  0  0  0
   -6.9202   -3.9968    6.6733 C   0  0  0  0  0  0  0  0  0  0  0  0
   -8.0073   -4.5699    6.0272 C   0  0  0  0  0  0  0  0  0  0  0  0
   -8.8649   -5.8136    6.6542 C   0  0  0  0  0  0  0  0  0  0  0  0
   -9.7801   -6.7210    5.9050 C   0  0  0  0  0  0  0  0  0  0  0  0
  -10.0493   -8.7576    5.5547 C   0  0  0  0  0  0  0  0  0  0  0  0
   -9.6714  -10.5171    5.7208 N   0  0  0  0  0  0  0  0  0  0  0  0
  -10.2322  -12.4509    6.0345 N   0  0  0  0  0  0  0  0  0  0  0  0
  -11.9344  -13.4971    5.5602 C   0  0  0  0  0  0  0  0  0  0  0  0
  -12.8920  -13.0464    4.9237 O   0  0  0  0  0  0  0  0  0  0  0  0
  -11.9020  -15.5432    6.1091 C   0  0  0  0  0  0  0  0  0  0  0  0
  -11.4524  -16.7309    7.4306 C   0  0  0  0  0  0  0  0  0  0  0  0
  -10.6064  -18.4480    7.9267 C   0  0  0  0  0  0  0  0  0  0  0  0
  -10.2832  -19.3190    6.4281 C   0  0  0  0  0  0  0  0  0  0  0  0
  -10.9600  -18.4631    5.1399 N   0  0  0  0  0  0  0  0  0  0  0  0
  -11.6445  -16.8251    5.1294 C   0  0  0  0  0  0  0  0  0  0  0  0
   -9.6286   -3.7425    7.1617 H   0  0  0  0  0  0  0  0  0  0  0  0
  -11.2667   -3.8649    7.1015 H   0  0  0  0  0  0  0  0  0  0  0  0
  -10.3909   -2.9009    5.8750 H   0  0  0  0  0  0  0  0  0  0  0  0
  -11.1920   -5.5602    4.6377 H   0  0  0  0  0  0  0  0  0  0  0  0
   -8.0012   -2.5631    3.2464 H   0  0  0  0  0  0  0  0  0  0  0  0
   -6.0260   -1.5985    4.4259 H   0  0  0  0  0  0  0  0  0  0  0  0
   -5.3509   -2.5164    6.6354 H   0  0  0  0  0  0  0  0  0  0  0  0
   -6.6264   -4.3878    7.6274 H   0  0  0  0  0  0  0  0  0  0  0  0
   -8.2122   -5.9932    7.4774 H   0  0  0  0  0  0  0  0  0  0  0  0
   -9.7335   -8.7202    6.6725 H   0  0  0  0  0  0  0  0  0  0  0  0
   -9.5629  -13.0629    6.4938 H   0  0  0  0  0  0  0  0  0  0  0  0
  -12.0786  -16.5096    8.3079 H   0  0  0  0  0  0  0  0  0  0  0  0
  -10.6655  -18.9514    8.8622 H   0  0  0  0  0  0  0  0  0  0  0  0
  -10.0265  -20.3484    6.2729 H   0  0  0  0  0  0  0  0  0  0  0  0
  -11.8955  -16.6562    4.0701 H   0  0  0  0  0  0  0  0  0  0  0  0
  1  2  1  0
  2  3  1  0
  3  4  1  0
  4  5  2  0
  5  6  1  0
  6  7  2  0
  7  8  1  0
  8  9  2  0
  9 10  1  0
 10 11  2  0
 11 12  1  0
 12 13  2  3
 13 14  1  0
 14 15  1  0
 15 16  2  0
 15 17  1  0
 17 18  2  0
 18 19  1  0
 19 20  2  0
 20 21  1  0
 21 22  2  0
 11  2  1  0
 22 17  1  0
  9  4  1  0
  1 23  1  0
  1 24  1  0
  1 25  1  0
  2 26  1  0
  5 27  1  0
  6 28  1  0
  7 29  1  0
  8 30  1  0
 10 31  1  0
 12 32  1  0
 14 33  1  0
 18 34  1  0
 19 35  1  0
 20 36  1  0
 22 37  1  0
M  END
>  <Energy>  (239) 
1356.8210845115091

>  <compound_id>  (239) 
14384

>  <target_id>  (239) 
1

>  <reference_id>  (239) 
48

>  <inspiration_ids>  (239) 
[91, 48]

>  <energy_score>  (239) 
1241.65294876705

>  <distance_score>  (239) 
6.705556078847245

>  <path>  (239) 
/opt/xchem-fragalysis-2/maxwin/BulkDock/SCRATCH/511014/C14384-P48/C14384-P48.minimised.mol

>  <scratch_subdir>  (239) 
/opt/xchem-fragalysis-2/maxwin/BulkDock/SCRATCH/511014/C14384-P48

>  <fragmenstein_runtime>  (239) 
6.588291883468628

>  <fragmenstein_outcome>  (239) 
too moved

>  <fragmenstein_mode>  (239) 
expansion

>  <fragmenstein_error>  (239) 


$$$$
C14399-P48
     RDKit          3D

 38 40  0  0  0  0  0  0  0  0999 V2000
   -7.5432   -1.0237    6.0715 C   0  0  0  0  0  0  0  0  0  0  0  0
   -8.1123   -1.8959    7.1752 C   0  0  0  0  0  0  0  0  0  0  0  0
   -7.5048   -3.1913    7.1085 O   0  0  0  0  0  0  0  0  0  0  0  0
   -8.3869   -4.1996    6.8695 C   0  0  0  0  0  0  0  0  0  0  0  0
   -9.2290   -4.2374    5.8058 C   0  0  0  0  0  0  0  0  0  0  0  0
   -9.8876   -5.4517    5.5680 C   0  0  0  0  0  0  0  0  0  0  0  0
   -9.8328   -6.6654    6.3929 C   0  0  0  0  0  0  0  0  0  0  0  0
   -9.2323   -6.6629    7.6051 C   0  0  0  0  0  0  0  0  0  0  0  0
   -8.3501   -5.3323    7.6891 C   0  0  0  0  0  0  0  0  0  0  0  0
   -9.1490   -8.4914    8.5769 C   0  0  0  0  0  0  0  0  0  0  0  0
   -9.8509  -10.0205    8.2560 C   0  0  0  0  0  0  0  0  0  0  0  0
   -8.8728  -11.8248    8.0434 C   0  0  0  0  0  0  0  0  0  0  0  0
   -7.9556  -11.6208    7.4447 O   0  0  0  0  0  0  0  0  0  0  0  0
   -8.8542  -13.7865    8.7150 N   0  0  0  0  0  0  0  0  0  0  0  0
   -7.3336  -15.2882    8.5640 C   0  0  0  0  0  0  0  0  0  0  0  0
   -7.6210  -17.0633    8.0828 C   0  0  0  0  0  0  0  0  0  0  0  0
   -7.2422  -18.6479    7.7925 C   0  0  0  0  0  0  0  0  0  0  0  0
   -6.0831  -18.9754    8.2639 C   0  0  0  0  0  0  0  0  0  0  0  0
   -5.8103  -17.9410    8.9921 N   0  0  0  0  0  0  0  0  0  0  0  0
   -6.5528  -16.2667    9.1487 C   0  0  0  0  0  0  0  0  0  0  0  0
   -9.3935   -9.0455    7.3200 C   0  0  0  0  0  0  0  0  0  0  0  0
  -10.2944   -7.9981    6.1756 O   0  0  0  0  0  0  0  0  0  0  0  0
   -6.4520   -0.9699    6.1476 H   0  0  0  0  0  0  0  0  0  0  0  0
   -7.7731   -1.4407    5.0860 H   0  0  0  0  0  0  0  0  0  0  0  0
   -7.9502   -0.0103    6.1282 H   0  0  0  0  0  0  0  0  0  0  0  0
   -7.8441   -1.4643    8.1451 H   0  0  0  0  0  0  0  0  0  0  0  0
   -9.2082   -1.9226    7.1286 H   0  0  0  0  0  0  0  0  0  0  0  0
   -9.2974   -3.4324    5.0856 H   0  0  0  0  0  0  0  0  0  0  0  0
  -10.4310   -5.5670    4.6378 H   0  0  0  0  0  0  0  0  0  0  0  0
   -7.6067   -5.1977    8.4827 H   0  0  0  0  0  0  0  0  0  0  0  0
   -8.2073   -8.4682    9.2395 H   0  0  0  0  0  0  0  0  0  0  0  0
   -9.6358  -13.9229    9.3147 H   0  0  0  0  0  0  0  0  0  0  0  0
   -8.6014  -17.5821    8.2671 H   0  0  0  0  0  0  0  0  0  0  0  0
   -7.9830  -19.2705    7.3180 H   0  0  0  0  0  0  0  0  0  0  0  0
   -5.4836  -19.8550    8.2680 H   0  0  0  0  0  0  0  0  0  0  0  0
   -6.4992  -16.3430   10.3065 H   0  0  0  0  0  0  0  0  0  0  0  0
   -7.9128   -8.6158    7.6888 H   0  0  0  0  0  0  0  0  0  0  0  0
   -9.3944  -10.0471    6.7419 H   0  0  0  0  0  0  0  0  0  0  0  0
  1  2  1  0
  2  3  1  0
  3  4  1  0
  4  5  2  0
  5  6  1  0
  6  7  2  0
  7  8  1  0
  8  9  2  0
  8 10  1  0
 10 11  2  0
 11 12  1  0
 12 13  2  0
 12 14  1  0
 14 15  1  0
 15 16  2  0
 16 17  1  0
 17 18  2  0
 18 19  1  0
 19 20  2  0
 11 21  1  0
 21 22  1  0
  9  4  1  0
 20 15  1  0
 22  7  1  0
  1 23  1  0
  1 24  1  0
  1 25  1  0
  2 26  1  0
  2 27  1  0
  5 28  1  0
  6 29  1  0
  9 30  1  0
 10 31  1  0
 14 32  1  0
 16 33  1  0
 17 34  1  0
 18 35  1  0
 20 36  1  0
 21 37  1  0
 21 38  1  0
M  END
>  <Energy>  (240) 
1417.7740783988431

>  <compound_id>  (240) 
14399

>  <target_id>  (240) 
1

>  <reference_id>  (240) 
48

>  <inspiration_ids>  (240) 
[91, 48]

>  <energy_score>  (240) 
1339.3882265197385

>  <distance_score>  (240) 
8.625968364449902

>  <path>  (240) 
/opt/xchem-fragalysis-2/maxwin/BulkDock/SCRATCH/511014/C14399-P48/C14399-P48.minimised.mol

>  <scratch_subdir>  (240) 
/opt/xchem-fragalysis-2/maxwin/BulkDock/SCRATCH/511014/C14399-P48

>  <fragmenstein_runtime>  (240) 
14.649213314056396

>  <fragmenstein_outcome>  (240) 
too moved

>  <fragmenstein_mode>  (240) 
expansion

>  <fragmenstein_error>  (240) 


$$$$
C14400-P48
     RDKit          3D

 44 46  0  0  0  0  0  0  0  0999 V2000
   -5.7988   -1.5226    4.8612 C   0  0  0  0  0  0  0  0  0  0  0  0
   -7.1939   -0.9990    5.1618 C   0  0  0  0  0  0  0  0  0  0  0  0
   -8.1923   -1.7989    4.5278 O   0  0  0  0  0  0  0  0  0  0  0  0
   -8.6287   -2.9341    5.1497 C   0  0  0  0  0  0  0  0  0  0  0  0
   -8.1949   -3.4018    6.3696 C   0  0  0  0  0  0  0  0  0  0  0  0
   -8.6657   -4.6324    6.7929 C   0  0  0  0  0  0  0  0  0  0  0  0
   -9.5763   -5.3745    6.0082 C   0  0  0  0  0  0  0  0  0  0  0  0
  -10.1291   -4.9587    4.8602 C   0  0  0  0  0  0  0  0  0  0  0  0
   -9.5895   -3.6859    4.4295 C   0  0  0  0  0  0  0  0  0  0  0  0
  -11.2049   -6.1560    4.0843 C   0  0  0  0  0  0  0  0  0  0  0  0
  -10.5784   -7.2431    3.5827 C   0  0  0  0  0  0  0  0  0  0  0  0
  -10.5338   -8.5118    2.0930 C   0  0  0  0  0  0  0  0  0  0  0  0
   -9.5817   -9.1265    1.7170 O   0  0  0  0  0  0  0  0  0  0  0  0
  -11.9874   -8.5768    1.6458 N   0  0  0  0  0  0  0  0  0  0  0  0
  -12.6801   -9.5044    0.6698 C   0  0  0  0  0  0  0  0  0  0  0  0
  -11.8711   -9.5797   -0.6253 C   0  0  0  0  0  0  0  0  0  0  0  0
  -13.1406  -10.9141    1.2296 C   0  0  0  0  0  0  0  0  0  0  0  0
  -13.9644  -11.0402    2.3665 C   0  0  0  0  0  0  0  0  0  0  0  0
  -14.2888  -12.3003    2.9133 C   0  0  0  0  0  0  0  0  0  0  0  0
  -13.8174  -13.4393    2.2896 C   0  0  0  0  0  0  0  0  0  0  0  0
  -13.0669  -13.3932    1.1730 N   0  0  0  0  0  0  0  0  0  0  0  0
  -12.7476  -12.1516    0.6837 C   0  0  0  0  0  0  0  0  0  0  0  0
  -10.1786   -7.6648    5.0403 C   0  0  0  0  0  0  0  0  0  0  0  0
   -9.8025   -6.6808    6.2237 O   0  0  0  0  0  0  0  0  0  0  0  0
   -5.0384   -0.8563    5.2783 H   0  0  0  0  0  0  0  0  0  0  0  0
   -5.6435   -1.6001    3.7799 H   0  0  0  0  0  0  0  0  0  0  0  0
   -5.6460   -2.5236    5.2753 H   0  0  0  0  0  0  0  0  0  0  0  0
   -7.2840    0.0038    4.7285 H   0  0  0  0  0  0  0  0  0  0  0  0
   -7.3750   -0.8761    6.2351 H   0  0  0  0  0  0  0  0  0  0  0  0
   -7.4694   -2.8860    6.9847 H   0  0  0  0  0  0  0  0  0  0  0  0
   -8.2527   -5.0506    7.6982 H   0  0  0  0  0  0  0  0  0  0  0  0
   -9.9107   -3.2153    3.5057 H   0  0  0  0  0  0  0  0  0  0  0  0
  -12.1394   -5.7568    3.6918 H   0  0  0  0  0  0  0  0  0  0  0  0
  -12.5195   -7.8505    2.1218 H   0  0  0  0  0  0  0  0  0  0  0  0
  -13.6173   -8.9839    0.4321 H   0  0  0  0  0  0  0  0  0  0  0  0
  -12.4242  -10.1095   -1.4081 H   0  0  0  0  0  0  0  0  0  0  0  0
  -10.9162  -10.0948   -0.4755 H   0  0  0  0  0  0  0  0  0  0  0  0
  -11.6464   -8.5749   -1.0001 H   0  0  0  0  0  0  0  0  0  0  0  0
  -14.3160  -10.1466    2.8769 H   0  0  0  0  0  0  0  0  0  0  0  0
  -14.8890  -12.3723    3.8133 H   0  0  0  0  0  0  0  0  0  0  0  0
  -14.0358  -14.4310    2.6720 H   0  0  0  0  0  0  0  0  0  0  0  0
  -12.1039  -12.2013   -0.1913 H   0  0  0  0  0  0  0  0  0  0  0  0
  -10.6389   -8.2952    5.7629 H   0  0  0  0  0  0  0  0  0  0  0  0
   -9.7764   -8.6688    4.8970 H   0  0  0  0  0  0  0  0  0  0  0  0
  1  2  1  0
  2  3  1  0
  3  4  1  0
  4  5  2  0
  5  6  1  0
  6  7  2  0
  7  8  1  0
  8  9  2  0
  8 10  1  0
 10 11  2  0
 11 12  1  0
 12 13  2  0
 12 14  1  0
 14 15  1  0
 15 16  1  0
 15 17  1  0
 17 18  2  0
 18 19  1  0
 19 20  2  0
 20 21  1  0
 21 22  2  0
 11 23  1  0
 23 24  1  0
  9  4  1  0
 22 17  1  0
 24  7  1  0
  1 25  1  0
  1 26  1  0
  1 27  1  0
  2 28  1  0
  2 29  1  0
  5 30  1  0
  6 31  1  0
  9 32  1  0
 10 33  1  0
 14 34  1  0
 15 35  1  0
 16 36  1  0
 16 37  1  0
 16 38  1  0
 18 39  1  0
 19 40  1  0
 20 41  1  0
 22 42  1  0
 23 43  1  0
 23 44  1  0
M  END
>  <Energy>  (241) 
235.52298553541357

>  <compound_id>  (241) 
14400

>  <target_id>  (241) 
1

>  <reference_id>  (241) 
48

>  <inspiration_ids>  (241) 
[91, 48]

>  <energy_score>  (241) 
193.29493267561475

>  <distance_score>  (241) 
10.745075004725566

>  <path>  (241) 
/opt/xchem-fragalysis-2/maxwin/BulkDock/SCRATCH/511014/C14400-P48/C14400-P48.minimised.mol

>  <scratch_subdir>  (241) 
/opt/xchem-fragalysis-2/maxwin/BulkDock/SCRATCH/511014/C14400-P48

>  <fragmenstein_runtime>  (241) 
12.33181381225586

>  <fragmenstein_outcome>  (241) 
too moved

>  <fragmenstein_mode>  (241) 
expansion

>  <fragmenstein_error>  (241) 


$$$$
C14377-P48
     RDKit          3D

 41 43  0  0  0  0  0  0  0  0999 V2000
   -7.6167   -2.1677    5.1418 C   0  0  0  0  0  0  0  0  0  0  0  0
   -8.7503   -2.4383    6.1151 C   0  0  0  0  0  0  0  0  0  0  0  0
   -8.6407   -3.7556    6.6459 O   0  0  0  0  0  0  0  0  0  0  0  0
   -9.3528   -4.7590    6.0478 C   0  0  0  0  0  0  0  0  0  0  0  0
   -9.9416   -4.7327    4.8057 C   0  0  0  0  0  0  0  0  0  0  0  0
  -10.4941   -5.9281    4.2889 C   0  0  0  0  0  0  0  0  0  0  0  0
  -10.2613   -7.2015    5.0021 C   0  0  0  0  0  0  0  0  0  0  0  0
   -9.9125   -7.4759    6.4239 C   0  0  0  0  0  0  0  0  0  0  0  0
   -9.3416   -6.0159    6.7613 C   0  0  0  0  0  0  0  0  0  0  0  0
   -9.5321   -9.2317    7.3968 C   0  0  0  0  0  0  0  0  0  0  0  0
   -9.3993  -10.8201    6.6136 C   0  0  0  0  0  0  0  0  0  0  0  0
  -10.1913  -12.7256    6.5919 C   0  0  0  0  0  0  0  0  0  0  0  0
  -11.2174  -12.6798    6.1569 O   0  0  0  0  0  0  0  0  0  0  0  0
   -9.8849  -14.3974    7.2072 N   0  0  0  0  0  0  0  0  0  0  0  0
  -11.2645  -16.4046    7.2056 S   0  0  0  0  0  0  0  0  0  0  0  0
  -12.2403  -16.3133    8.2546 O   0  0  0  0  0  0  0  0  0  0  0  0
  -11.6651  -16.4692    5.7876 O   0  0  0  0  0  0  0  0  0  0  0  0
  -10.2867  -18.6515    7.8185 C   0  0  0  0  0  0  0  0  0  0  0  0
  -10.6974  -19.7750    8.4376 C   0  0  0  0  0  0  0  0  0  0  0  0
  -11.1230  -21.0837    7.8419 C   0  0  0  0  0  0  0  0  0  0  0  0
  -10.7786  -21.5046    6.5827 C   0  0  0  0  0  0  0  0  0  0  0  0
  -10.0030  -20.7320    5.8629 N   0  0  0  0  0  0  0  0  0  0  0  0
   -9.8594  -19.4615    6.3904 C   0  0  0  0  0  0  0  0  0  0  0  0
   -9.6605   -9.7551    4.9768 C   0  0  0  0  0  0  0  0  0  0  0  0
  -10.0233   -8.2549    4.1765 O   0  0  0  0  0  0  0  0  0  0  0  0
   -7.6566   -1.1371    4.7779 H   0  0  0  0  0  0  0  0  0  0  0  0
   -6.6485   -2.3324    5.6266 H   0  0  0  0  0  0  0  0  0  0  0  0
   -7.6587   -2.8438    4.2826 H   0  0  0  0  0  0  0  0  0  0  0  0
   -8.6523   -1.7512    6.9633 H   0  0  0  0  0  0  0  0  0  0  0  0
   -9.7328   -2.2365    5.6745 H   0  0  0  0  0  0  0  0  0  0  0  0
   -9.9036   -3.8636    4.1606 H   0  0  0  0  0  0  0  0  0  0  0  0
  -10.8374   -5.9636    3.2594 H   0  0  0  0  0  0  0  0  0  0  0  0
   -8.6743   -5.8472    7.5834 H   0  0  0  0  0  0  0  0  0  0  0  0
   -9.9761   -9.3339    8.3789 H   0  0  0  0  0  0  0  0  0  0  0  0
   -9.0230  -14.4200    7.4738 H   0  0  0  0  0  0  0  0  0  0  0  0
   -9.7442  -20.1024    8.9474 H   0  0  0  0  0  0  0  0  0  0  0  0
  -11.5590  -21.8377    8.4857 H   0  0  0  0  0  0  0  0  0  0  0  0
  -11.0074  -22.4938    6.2078 H   0  0  0  0  0  0  0  0  0  0  0  0
   -9.4597  -18.8937    5.5310 H   0  0  0  0  0  0  0  0  0  0  0  0
  -10.3662   -9.1782    5.3850 H   0  0  0  0  0  0  0  0  0  0  0  0
   -9.5484  -10.4598    4.1539 H   0  0  0  0  0  0  0  0  0  0  0  0
  1  2  1  0
  2  3  1  0
  3  4  1  0
  4  5  2  0
  5  6  1  0
  6  7  2  0
  7  8  1  0
  8  9  2  0
  8 10  1  0
 10 11  2  0
 11 12  1  0
 12 13  2  0
 12 14  1  0
 14 15  1  0
 15 16  2  0
 15 17  2  0
 15 18  1  0
 18 19  2  0
 19 20  1  0
 20 21  2  0
 21 22  1  0
 22 23  2  0
 11 24  1  0
 24 25  1  0
  9  4  1  0
 23 18  1  0
 25  7  1  0
  1 26  1  0
  1 27  1  0
  1 28  1  0
  2 29  1  0
  2 30  1  0
  5 31  1  0
  6 32  1  0
  9 33  1  0
 10 34  1  0
 14 35  1  0
 19 36  1  0
 20 37  1  0
 21 38  1  0
 23 39  1  0
 24 40  1  0
 24 41  1  0
M  END
>  <Energy>  (242) 
961.94054572065102

>  <compound_id>  (242) 
14377

>  <target_id>  (242) 
1

>  <reference_id>  (242) 
48

>  <inspiration_ids>  (242) 
[91, 48]

>  <energy_score>  (242) 
989.0869807931654

>  <distance_score>  (242) 
7.789103741170284

>  <path>  (242) 
/opt/xchem-fragalysis-2/maxwin/BulkDock/SCRATCH/511014/C14377-P48/C14377-P48.minimised.mol

>  <scratch_subdir>  (242) 
/opt/xchem-fragalysis-2/maxwin/BulkDock/SCRATCH/511014/C14377-P48

>  <fragmenstein_runtime>  (242) 
13.215253591537476

>  <fragmenstein_outcome>  (242) 
too moved

>  <fragmenstein_mode>  (242) 
expansion

>  <fragmenstein_error>  (242) 


$$$$
C12511-P115
     RDKit          3D

 40 42  0  0  0  0  0  0  0  0999 V2000
  -12.0758  -23.7513   25.5400 C   0  0  0  0  0  0  0  0  0  0  0  0
  -11.4483  -24.6259   26.6075 C   0  0  0  0  0  0  0  0  0  0  0  0
  -11.3150  -23.8186   27.9064 C   0  0  0  0  0  0  0  0  0  0  0  0
  -12.2047  -25.9727   26.6916 C   0  0  0  0  0  0  0  0  0  0  0  0
  -11.3758  -27.2137   27.1586 C   0  0  0  0  0  0  0  0  0  0  0  0
  -10.7092  -28.0179   25.7732 C   0  0  0  0  0  0  0  0  0  0  0  0
  -10.4677  -27.3116   24.8371 O   0  0  0  0  0  0  0  0  0  0  0  0
  -10.6103  -29.6874   25.9231 N   0  0  0  0  0  0  0  0  0  0  0  0
  -10.2916  -30.7333   24.9008 C   0  0  0  0  0  0  0  0  0  0  0  0
  -11.0970  -31.8985   25.0690 C   0  0  0  0  0  0  0  0  0  0  0  0
  -10.8929  -33.1577   24.4346 C   0  0  0  0  0  0  0  0  0  0  0  0
   -9.7673  -33.3369   23.6225 C   0  0  0  0  0  0  0  0  0  0  0  0
   -9.2934  -34.5568   23.1343 N   0  0  0  0  0  0  0  0  0  0  0  0
   -8.2303  -34.3368   22.3954 C   0  0  0  0  0  0  0  0  0  0  0  0
   -7.7721  -32.6921   22.2111 S   0  0  0  0  0  0  0  0  0  0  0  0
   -9.0238  -32.1889   23.3193 C   0  0  0  0  0  0  0  0  0  0  0  0
   -9.3040  -30.8746   23.9141 C   0  0  0  0  0  0  0  0  0  0  0  0
  -10.7719  -26.8586   28.4820 N   0  0  0  0  0  0  0  0  0  0  0  0
  -11.5317  -26.8341   29.6426 C   0  0  0  0  0  0  0  0  0  0  0  0
  -10.8054  -26.1308   30.5718 C   0  0  0  0  0  0  0  0  0  0  0  0
   -9.6124  -25.7623   30.0374 N   0  0  0  0  0  0  0  0  0  0  0  0
   -9.6120  -26.2398   28.8095 C   0  0  0  0  0  0  0  0  0  0  0  0
  -12.0090  -22.7018   25.7946 H   0  0  0  0  0  0  0  0  0  0  0  0
  -11.4871  -23.8429   24.6292 H   0  0  0  0  0  0  0  0  0  0  0  0
  -13.1260  -23.9865   25.3461 H   0  0  0  0  0  0  0  0  0  0  0  0
  -10.4360  -24.8297   26.2719 H   0  0  0  0  0  0  0  0  0  0  0  0
  -10.2574  -23.6996   28.1603 H   0  0  0  0  0  0  0  0  0  0  0  0
  -11.7070  -22.7994   27.8308 H   0  0  0  0  0  0  0  0  0  0  0  0
  -11.8176  -24.2858   28.7511 H   0  0  0  0  0  0  0  0  0  0  0  0
  -13.0690  -25.8508   27.3562 H   0  0  0  0  0  0  0  0  0  0  0  0
  -12.6284  -26.2016   25.7058 H   0  0  0  0  0  0  0  0  0  0  0  0
  -12.0998  -27.9477   27.5234 H   0  0  0  0  0  0  0  0  0  0  0  0
  -10.9692  -29.9749   26.8338 H   0  0  0  0  0  0  0  0  0  0  0  0
  -11.9355  -31.8536   25.7632 H   0  0  0  0  0  0  0  0  0  0  0  0
  -11.5301  -34.0036   24.6714 H   0  0  0  0  0  0  0  0  0  0  0  0
   -7.6795  -35.1294   21.9071 H   0  0  0  0  0  0  0  0  0  0  0  0
   -8.6195  -30.0643   23.6942 H   0  0  0  0  0  0  0  0  0  0  0  0
  -12.5192  -27.2614   29.6652 H   0  0  0  0  0  0  0  0  0  0  0  0
  -11.0795  -25.8588   31.5835 H   0  0  0  0  0  0  0  0  0  0  0  0
   -8.8080  -26.1502   28.1098 H   0  0  0  0  0  0  0  0  0  0  0  0
  1  2  1  0
  2  3  1  0
  2  4  1  0
  4  5  1  0
  5  6  1  0
  6  7  2  0
  6  8  1  0
  8  9  1  0
  9 10  2  0
 10 11  1  0
 11 12  2  0
 12 13  1  0
 13 14  2  0
 14 15  1  0
 15 16  1  0
 16 17  2  0
  5 18  1  0
 18 19  1  0
 19 20  2  0
 20 21  1  0
 21 22  2  0
 17  9  1  0
 22 18  1  0
 16 12  1  0
  1 23  1  0
  1 24  1  0
  1 25  1  0
  2 26  1  0
  3 27  1  0
  3 28  1  0
  3 29  1  0
  4 30  1  0
  4 31  1  0
  5 32  1  0
  8 33  1  0
 10 34  1  0
 11 35  1  0
 14 36  1  0
 17 37  1  0
 19 38  1  0
 20 39  1  0
 22 40  1  0
M  END
>  <Energy>  (243) 
122.37019085664467

>  <compound_id>  (243) 
12511

>  <target_id>  (243) 
1

>  <reference_id>  (243) 
115

>  <inspiration_ids>  (243) 
[115, 68]

>  <energy_score>  (243) 
-11.630354641952636

>  <distance_score>  (243) 
3.6511684914498086

>  <path>  (243) 
/opt/xchem-fragalysis-2/maxwin/BulkDock/SCRATCH/511014/C12511-P115/C12511-P115.minimised.mol

>  <scratch_subdir>  (243) 
/opt/xchem-fragalysis-2/maxwin/BulkDock/SCRATCH/511014/C12511-P115

>  <fragmenstein_runtime>  (243) 
4.01648736000061

>  <fragmenstein_outcome>  (243) 
too moved

>  <fragmenstein_mode>  (243) 
expansion

>  <fragmenstein_error>  (243) 


$$$$
C12511-P68
     RDKit          3D

 40 42  0  0  0  0  0  0  0  0999 V2000
   -6.7006  -28.7136   23.5140 C   0  0  0  0  0  0  0  0  0  0  0  0
   -8.4588  -28.6515   23.6101 C   0  0  0  0  0  0  0  0  0  0  0  0
   -8.8500  -29.3904   22.0593 C   0  0  0  0  0  0  0  0  0  0  0  0
   -9.9082  -27.9958   25.0424 C   0  0  0  0  0  0  0  0  0  0  0  0
  -11.6558  -28.3033   26.1054 C   0  0  0  0  0  0  0  0  0  0  0  0
  -12.8831  -30.0855   26.1791 C   0  0  0  0  0  0  0  0  0  0  0  0
  -14.0859  -29.8912   26.1741 O   0  0  0  0  0  0  0  0  0  0  0  0
  -12.1762  -31.5132   26.1071 N   0  0  0  0  0  0  0  0  0  0  0  0
  -12.7049  -32.8170   25.9201 C   0  0  0  0  0  0  0  0  0  0  0  0
  -11.7730  -33.6826   25.2782 C   0  0  0  0  0  0  0  0  0  0  0  0
  -12.0808  -34.9616   24.8328 C   0  0  0  0  0  0  0  0  0  0  0  0
  -13.3868  -35.4035   25.0092 C   0  0  0  0  0  0  0  0  0  0  0  0
  -13.8304  -36.6603   24.6557 N   0  0  0  0  0  0  0  0  0  0  0  0
  -15.1109  -36.7458   24.9138 C   0  0  0  0  0  0  0  0  0  0  0  0
  -15.8458  -35.3534   25.5859 S   0  0  0  0  0  0  0  0  0  0  0  0
  -14.3307  -34.5316   25.5698 C   0  0  0  0  0  0  0  0  0  0  0  0
  -14.0247  -33.2141   26.0095 C   0  0  0  0  0  0  0  0  0  0  0  0
  -12.4211  -27.0307   26.0211 N   0  0  0  0  0  0  0  0  0  0  0  0
  -11.8301  -25.8128   26.1138 C   0  0  0  0  0  0  0  0  0  0  0  0
  -12.8581  -24.9049   26.0738 C   0  0  0  0  0  0  0  0  0  0  0  0
  -14.0380  -25.5335   25.8579 N   0  0  0  0  0  0  0  0  0  0  0  0
  -13.7543  -26.8052   25.8434 C   0  0  0  0  0  0  0  0  0  0  0  0
   -6.3605  -28.1486   22.6402 H   0  0  0  0  0  0  0  0  0  0  0  0
   -6.4319  -29.7039   23.5441 H   0  0  0  0  0  0  0  0  0  0  0  0
   -6.0728  -28.3563   24.3365 H   0  0  0  0  0  0  0  0  0  0  0  0
   -8.5926  -27.7039   23.1583 H   0  0  0  0  0  0  0  0  0  0  0  0
   -8.3249  -29.5679   21.1750 H   0  0  0  0  0  0  0  0  0  0  0  0
   -9.4266  -28.6176   21.6342 H   0  0  0  0  0  0  0  0  0  0  0  0
   -9.7433  -30.1448   22.0319 H   0  0  0  0  0  0  0  0  0  0  0  0
   -9.6072  -27.0725   25.4987 H   0  0  0  0  0  0  0  0  0  0  0  0
  -10.6116  -27.4886   24.3861 H   0  0  0  0  0  0  0  0  0  0  0  0
  -11.1478  -28.2792   27.1023 H   0  0  0  0  0  0  0  0  0  0  0  0
  -11.1742  -31.3849   26.2184 H   0  0  0  0  0  0  0  0  0  0  0  0
  -10.7529  -33.3633   25.0783 H   0  0  0  0  0  0  0  0  0  0  0  0
  -11.3364  -35.5982   24.3665 H   0  0  0  0  0  0  0  0  0  0  0  0
  -15.6825  -37.6427   24.7123 H   0  0  0  0  0  0  0  0  0  0  0  0
  -14.7972  -32.5630   26.4045 H   0  0  0  0  0  0  0  0  0  0  0  0
  -10.7761  -25.6349   26.2799 H   0  0  0  0  0  0  0  0  0  0  0  0
  -12.7604  -23.8280   26.1293 H   0  0  0  0  0  0  0  0  0  0  0  0
  -14.5128  -27.5626   25.7234 H   0  0  0  0  0  0  0  0  0  0  0  0
  1  2  1  0
  2  3  1  0
  2  4  1  0
  4  5  1  0
  5  6  1  0
  6  7  2  0
  6  8  1  0
  8  9  1  0
  9 10  2  0
 10 11  1  0
 11 12  2  0
 12 13  1  0
 13 14  2  0
 14 15  1  0
 15 16  1  0
 16 17  2  0
  5 18  1  0
 18 19  1  0
 19 20  2  0
 20 21  1  0
 21 22  2  0
 17  9  1  0
 22 18  1  0
 16 12  1  0
  1 23  1  0
  1 24  1  0
  1 25  1  0
  2 26  1  0
  3 27  1  0
  3 28  1  0
  3 29  1  0
  4 30  1  0
  4 31  1  0
  5 32  1  0
  8 33  1  0
 10 34  1  0
 11 35  1  0
 14 36  1  0
 17 37  1  0
 19 38  1  0
 20 39  1  0
 22 40  1  0
M  END
>  <Energy>  (244) 
449.92462747116451

>  <compound_id>  (244) 
12511

>  <target_id>  (244) 
1

>  <reference_id>  (244) 
68

>  <inspiration_ids>  (244) 
[115, 68]

>  <energy_score>  (244) 
332.8270137925325

>  <distance_score>  (244) 
5.6930944535446955

>  <path>  (244) 
/opt/xchem-fragalysis-2/maxwin/BulkDock/SCRATCH/511014/C12511-P68/C12511-P68.minimised.mol

>  <scratch_subdir>  (244) 
/opt/xchem-fragalysis-2/maxwin/BulkDock/SCRATCH/511014/C12511-P68

>  <fragmenstein_runtime>  (244) 
16.512824296951294

>  <fragmenstein_outcome>  (244) 
too moved

>  <fragmenstein_mode>  (244) 
expansion

>  <fragmenstein_error>  (244) 


$$$$
C12512-P115
     RDKit          3D

 40 42  0  0  0  0  0  0  0  0999 V2000
  -12.1825  -27.8138   28.0566 C   0  0  0  0  0  0  0  0  0  0  0  0
  -11.2860  -27.1419   26.9833 C   0  0  0  0  0  0  0  0  0  0  0  0
  -10.2446  -26.1872   27.6119 C   0  0  0  0  0  0  0  0  0  0  0  0
  -10.5398  -25.6374   28.9735 C   0  0  0  0  0  0  0  0  0  0  0  0
  -11.2183  -24.5096   29.3799 C   0  0  0  0  0  0  0  0  0  0  0  0
  -11.2303  -24.4101   30.7475 N   0  0  0  0  0  0  0  0  0  0  0  0
  -10.5491  -25.4423   31.1820 C   0  0  0  0  0  0  0  0  0  0  0  0
  -10.1048  -26.2105   30.1466 N   0  0  0  0  0  0  0  0  0  0  0  0
  -10.7463  -28.0165   25.6009 C   0  0  0  0  0  0  0  0  0  0  0  0
  -10.6519  -27.3579   24.5975 O   0  0  0  0  0  0  0  0  0  0  0  0
  -10.5601  -29.5409   25.8245 N   0  0  0  0  0  0  0  0  0  0  0  0
  -10.3064  -30.6642   24.8457 C   0  0  0  0  0  0  0  0  0  0  0  0
  -11.4319  -31.7121   25.1586 C   0  0  0  0  0  0  0  0  0  0  0  0
   -9.7487  -30.9268   23.4382 C   0  0  0  0  0  0  0  0  0  0  0  0
  -10.4761  -31.7709   22.5600 C   0  0  0  0  0  0  0  0  0  0  0  0
   -9.8608  -32.6393   21.6518 C   0  0  0  0  0  0  0  0  0  0  0  0
   -8.4657  -32.6393   21.5572 C   0  0  0  0  0  0  0  0  0  0  0  0
   -7.7059  -33.5430   20.8299 N   0  0  0  0  0  0  0  0  0  0  0  0
   -6.4416  -33.1992   20.9307 C   0  0  0  0  0  0  0  0  0  0  0  0
   -6.0951  -31.8014   21.8547 S   0  0  0  0  0  0  0  0  0  0  0  0
   -7.7616  -31.6595   22.2577 C   0  0  0  0  0  0  0  0  0  0  0  0
   -8.3899  -30.7683   23.1597 C   0  0  0  0  0  0  0  0  0  0  0  0
  -13.2185  -27.4678   27.9426 H   0  0  0  0  0  0  0  0  0  0  0  0
  -11.9342  -27.5796   29.0895 H   0  0  0  0  0  0  0  0  0  0  0  0
  -12.1860  -28.9013   28.0139 H   0  0  0  0  0  0  0  0  0  0  0  0
  -11.9946  -26.4491   26.4929 H   0  0  0  0  0  0  0  0  0  0  0  0
  -10.1714  -25.3117   26.9584 H   0  0  0  0  0  0  0  0  0  0  0  0
   -9.2630  -26.6588   27.6420 H   0  0  0  0  0  0  0  0  0  0  0  0
  -11.6846  -23.7563   28.7571 H   0  0  0  0  0  0  0  0  0  0  0  0
  -10.3516  -25.6806   32.2189 H   0  0  0  0  0  0  0  0  0  0  0  0
   -9.5829  -27.0703   30.2387 H   0  0  0  0  0  0  0  0  0  0  0  0
  -10.7972  -29.7726   26.7773 H   0  0  0  0  0  0  0  0  0  0  0  0
   -9.4807  -31.1065   25.4182 H   0  0  0  0  0  0  0  0  0  0  0  0
  -11.1024  -32.7392   24.9690 H   0  0  0  0  0  0  0  0  0  0  0  0
  -11.7488  -31.6509   26.2021 H   0  0  0  0  0  0  0  0  0  0  0  0
  -12.3309  -31.5518   24.5640 H   0  0  0  0  0  0  0  0  0  0  0  0
  -11.5557  -31.8610   22.6429 H   0  0  0  0  0  0  0  0  0  0  0  0
  -10.4422  -33.3493   21.0759 H   0  0  0  0  0  0  0  0  0  0  0  0
   -5.6498  -33.7527   20.4457 H   0  0  0  0  0  0  0  0  0  0  0  0
   -7.7764  -30.1063   23.7583 H   0  0  0  0  0  0  0  0  0  0  0  0
  1  2  1  0
  2  3  1  0
  3  4  1  0
  4  5  2  0
  5  6  1  0
  6  7  2  0
  7  8  1  0
  2  9  1  0
  9 10  2  0
  9 11  1  0
 11 12  1  0
 12 13  1  0
 12 14  1  0
 14 15  2  0
 15 16  1  0
 16 17  2  0
 17 18  1  0
 18 19  2  0
 19 20  1  0
 20 21  1  0
 21 22  2  0
  8  4  1  0
 22 14  1  0
 21 17  1  0
  1 23  1  0
  1 24  1  0
  1 25  1  0
  2 26  1  0
  3 27  1  0
  3 28  1  0
  5 29  1  0
  7 30  1  0
  8 31  1  0
 11 32  1  0
 12 33  1  0
 13 34  1  0
 13 35  1  0
 13 36  1  0
 15 37  1  0
 16 38  1  0
 19 39  1  0
 22 40  1  0
M  END
>  <Energy>  (245) 
95.109039067719067

>  <compound_id>  (245) 
12512

>  <target_id>  (245) 
1

>  <reference_id>  (245) 
115

>  <inspiration_ids>  (245) 
[115, 68]

>  <energy_score>  (245) 
7.442751402313888

>  <distance_score>  (245) 
3.633216042934446

>  <path>  (245) 
/opt/xchem-fragalysis-2/maxwin/BulkDock/SCRATCH/511014/C12512-P115/C12512-P115.minimised.mol

>  <scratch_subdir>  (245) 
/opt/xchem-fragalysis-2/maxwin/BulkDock/SCRATCH/511014/C12512-P115

>  <fragmenstein_runtime>  (245) 
6.054151773452759

>  <fragmenstein_outcome>  (245) 
too moved

>  <fragmenstein_mode>  (245) 
expansion

>  <fragmenstein_error>  (245) 


$$$$
C12512-P68
     RDKit          3D

 40 42  0  0  0  0  0  0  0  0999 V2000
  -11.1464  -27.3341   26.1871 C   0  0  0  0  0  0  0  0  0  0  0  0
   -9.7172  -28.4008   26.4106 C   0  0  0  0  0  0  0  0  0  0  0  0
  -10.0933  -28.2459   27.8274 C   0  0  0  0  0  0  0  0  0  0  0  0
   -9.9803  -27.0430   28.6293 C   0  0  0  0  0  0  0  0  0  0  0  0
   -9.7720  -25.5927   28.2995 C   0  0  0  0  0  0  0  0  0  0  0  0
   -8.9273  -24.9651   29.2894 N   0  0  0  0  0  0  0  0  0  0  0  0
   -8.3789  -26.0198   30.2636 C   0  0  0  0  0  0  0  0  0  0  0  0
   -9.2054  -27.3051   30.0511 N   0  0  0  0  0  0  0  0  0  0  0  0
   -9.8071  -28.4713   24.6902 C   0  0  0  0  0  0  0  0  0  0  0  0
  -10.2555  -27.4016   24.2620 O   0  0  0  0  0  0  0  0  0  0  0  0
   -9.5006  -30.1944   23.5169 N   0  0  0  0  0  0  0  0  0  0  0  0
  -10.0084  -30.5605   21.7214 C   0  0  0  0  0  0  0  0  0  0  0  0
  -11.4107  -30.7536   20.9848 C   0  0  0  0  0  0  0  0  0  0  0  0
  -10.4192  -32.2760   22.3013 C   0  0  0  0  0  0  0  0  0  0  0  0
  -11.4122  -32.6171   23.2218 C   0  0  0  0  0  0  0  0  0  0  0  0
  -11.4975  -33.8669   23.8820 C   0  0  0  0  0  0  0  0  0  0  0  0
  -10.6456  -34.9024   23.4867 C   0  0  0  0  0  0  0  0  0  0  0  0
  -10.5259  -36.1586   24.0530 N   0  0  0  0  0  0  0  0  0  0  0  0
   -9.7221  -36.8894   23.3120 C   0  0  0  0  0  0  0  0  0  0  0  0
   -9.1459  -36.1586   21.8731 S   0  0  0  0  0  0  0  0  0  0  0  0
   -9.9115  -34.6843   22.3267 C   0  0  0  0  0  0  0  0  0  0  0  0
   -9.9160  -33.4120   21.7069 C   0  0  0  0  0  0  0  0  0  0  0  0
  -11.8458  -27.1980   26.9746 H   0  0  0  0  0  0  0  0  0  0  0  0
  -10.8271  -26.3144   25.9394 H   0  0  0  0  0  0  0  0  0  0  0  0
  -11.8757  -27.7254   25.4785 H   0  0  0  0  0  0  0  0  0  0  0  0
   -9.9712  -29.4064   26.7180 H   0  0  0  0  0  0  0  0  0  0  0  0
   -9.3255  -28.8830   28.2796 H   0  0  0  0  0  0  0  0  0  0  0  0
  -11.0827  -28.6330   27.9993 H   0  0  0  0  0  0  0  0  0  0  0  0
   -9.9951  -25.0308   27.3914 H   0  0  0  0  0  0  0  0  0  0  0  0
   -8.0885  -25.6454   31.2100 H   0  0  0  0  0  0  0  0  0  0  0  0
   -8.8404  -28.2305   30.1534 H   0  0  0  0  0  0  0  0  0  0  0  0
   -9.0510  -30.9170   24.0573 H   0  0  0  0  0  0  0  0  0  0  0  0
   -9.3759  -30.8053   20.8275 H   0  0  0  0  0  0  0  0  0  0  0  0
  -11.4572  -31.6923   20.4065 H   0  0  0  0  0  0  0  0  0  0  0  0
  -12.3155  -30.7780   21.5882 H   0  0  0  0  0  0  0  0  0  0  0  0
  -11.4983  -30.0775   20.1307 H   0  0  0  0  0  0  0  0  0  0  0  0
  -12.2047  -31.9254   23.4369 H   0  0  0  0  0  0  0  0  0  0  0  0
  -12.2259  -34.0332   24.6680 H   0  0  0  0  0  0  0  0  0  0  0  0
   -9.4605  -37.9068   23.5743 H   0  0  0  0  0  0  0  0  0  0  0  0
   -9.7334  -33.3419   20.6686 H   0  0  0  0  0  0  0  0  0  0  0  0
  1  2  1  0
  2  3  1  0
  3  4  1  0
  4  5  2  0
  5  6  1  0
  6  7  2  0
  7  8  1  0
  2  9  1  0
  9 10  2  0
  9 11  1  0
 11 12  1  0
 12 13  1  0
 12 14  1  0
 14 15  2  0
 15 16  1  0
 16 17  2  0
 17 18  1  0
 18 19  2  0
 19 20  1  0
 20 21  1  0
 21 22  2  0
  8  4  1  0
 22 14  1  0
 21 17  1  0
  1 23  1  0
  1 24  1  0
  1 25  1  0
  2 26  1  0
  3 27  1  0
  3 28  1  0
  5 29  1  0
  7 30  1  0
  8 31  1  0
 11 32  1  0
 12 33  1  0
 13 34  1  0
 13 35  1  0
 13 36  1  0
 15 37  1  0
 16 38  1  0
 19 39  1  0
 22 40  1  0
M  END
>  <Energy>  (246) 
612.83614454111535

>  <compound_id>  (246) 
12512

>  <target_id>  (246) 
1

>  <reference_id>  (246) 
68

>  <inspiration_ids>  (246) 
[115, 68]

>  <energy_score>  (246) 
525.1698568757098

>  <distance_score>  (246) 
2.7476370927818916

>  <path>  (246) 
/opt/xchem-fragalysis-2/maxwin/BulkDock/SCRATCH/511014/C12512-P68/C12512-P68.minimised.mol

>  <scratch_subdir>  (246) 
/opt/xchem-fragalysis-2/maxwin/BulkDock/SCRATCH/511014/C12512-P68

>  <fragmenstein_runtime>  (246) 
10.602376699447632

>  <fragmenstein_outcome>  (246) 
too moved

>  <fragmenstein_mode>  (246) 
expansion

>  <fragmenstein_error>  (246) 


$$$$
C12513-P115
     RDKit          3D

 32 34  0  0  0  0  0  0  0  0999 V2000
  -11.9241  -32.0224   23.1357 C   0  0  0  0  0  0  0  0  0  0  0  0
  -10.7323  -31.8610   24.1070 C   0  0  0  0  0  0  0  0  0  0  0  0
   -9.9818  -30.5299   24.0043 N   0  0  0  0  0  0  0  0  0  0  0  0
   -9.7997  -29.6309   25.2749 C   0  0  0  0  0  0  0  0  0  0  0  0
  -10.2826  -27.9418   25.6529 C   0  0  0  0  0  0  0  0  0  0  0  0
  -11.2154  -27.1334   25.1823 N   0  0  0  0  0  0  0  0  0  0  0  0
  -11.4778  -26.1826   26.1581 C   0  0  0  0  0  0  0  0  0  0  0  0
  -12.7507  -24.8557   26.0246 Br  0  0  0  0  0  0  0  0  0  0  0  0
  -10.6183  -26.2564   27.2053 C   0  0  0  0  0  0  0  0  0  0  0  0
   -9.7143  -27.1286   26.6909 N   0  0  0  0  0  0  0  0  0  0  0  0
   -9.9796  -33.2028   23.8467 C   0  0  0  0  0  0  0  0  0  0  0  0
  -10.4884  -34.3654   24.4799 C   0  0  0  0  0  0  0  0  0  0  0  0
   -9.9059  -35.6305   24.3348 C   0  0  0  0  0  0  0  0  0  0  0  0
   -8.8134  -35.7841   23.4703 C   0  0  0  0  0  0  0  0  0  0  0  0
   -8.0978  -36.9587   23.2814 N   0  0  0  0  0  0  0  0  0  0  0  0
   -7.1762  -36.7547   22.3699 C   0  0  0  0  0  0  0  0  0  0  0  0
   -7.1135  -35.1878   21.6850 S   0  0  0  0  0  0  0  0  0  0  0  0
   -8.3878  -34.6730   22.7327 C   0  0  0  0  0  0  0  0  0  0  0  0
   -8.9549  -33.3784   22.9043 C   0  0  0  0  0  0  0  0  0  0  0  0
  -12.8141  -31.5395   23.5219 H   0  0  0  0  0  0  0  0  0  0  0  0
  -11.6859  -31.6260   22.1419 H   0  0  0  0  0  0  0  0  0  0  0  0
  -12.2370  -33.0626   22.9799 H   0  0  0  0  0  0  0  0  0  0  0  0
  -11.1363  -31.9147   25.1253 H   0  0  0  0  0  0  0  0  0  0  0  0
  -10.5020  -29.9212   23.3573 H   0  0  0  0  0  0  0  0  0  0  0  0
   -8.7177  -29.5600   25.3832 H   0  0  0  0  0  0  0  0  0  0  0  0
  -10.2089  -30.2229   26.0971 H   0  0  0  0  0  0  0  0  0  0  0  0
  -10.4655  -25.6724   28.1005 H   0  0  0  0  0  0  0  0  0  0  0  0
   -8.7983  -27.2854   27.0863 H   0  0  0  0  0  0  0  0  0  0  0  0
  -11.3470  -34.2800   25.1461 H   0  0  0  0  0  0  0  0  0  0  0  0
  -10.2848  -36.4839   24.8867 H   0  0  0  0  0  0  0  0  0  0  0  0
   -6.4960  -37.5329   22.0506 H   0  0  0  0  0  0  0  0  0  0  0  0
   -8.5725  -32.5283   22.3420 H   0  0  0  0  0  0  0  0  0  0  0  0
  1  2  1  0
  2  3  1  0
  3  4  1  0
  4  5  1  0
  5  6  2  0
  6  7  1  0
  7  8  1  0
  7  9  2  0
  9 10  1  0
  2 11  1  0
 11 12  2  0
 12 13  1  0
 13 14  2  0
 14 15  1  0
 15 16  2  0
 16 17  1  0
 17 18  1  0
 18 19  2  0
 10  5  1  0
 19 11  1  0
 18 14  1  0
  1 20  1  0
  1 21  1  0
  1 22  1  0
  2 23  1  0
  3 24  1  0
  4 25  1  0
  4 26  1  0
  9 27  1  0
 10 28  1  0
 12 29  1  0
 13 30  1  0
 16 31  1  0
 19 32  1  0
M  END
>  <Energy>  (247) 
92.806283938881805

>  <compound_id>  (247) 
12513

>  <target_id>  (247) 
1

>  <reference_id>  (247) 
115

>  <inspiration_ids>  (247) 
[115, 68]

>  <energy_score>  (247) 
30.644469189005918

>  <distance_score>  (247) 
3.2727789974912174

>  <path>  (247) 
/opt/xchem-fragalysis-2/maxwin/BulkDock/SCRATCH/511014/C12513-P115/C12513-P115.minimised.mol

>  <scratch_subdir>  (247) 
/opt/xchem-fragalysis-2/maxwin/BulkDock/SCRATCH/511014/C12513-P115

>  <fragmenstein_runtime>  (247) 
2.678431510925293

>  <fragmenstein_outcome>  (247) 
too moved

>  <fragmenstein_mode>  (247) 
expansion

>  <fragmenstein_error>  (247) 


$$$$
C12513-P68
     RDKit          3D

 32 34  0  0  0  0  0  0  0  0999 V2000
  -14.0188  -31.7533   26.6059 C   0  0  0  0  0  0  0  0  0  0  0  0
  -12.6501  -31.9889   25.9858 C   0  0  0  0  0  0  0  0  0  0  0  0
  -11.3983  -31.2521   26.4909 N   0  0  0  0  0  0  0  0  0  0  0  0
  -10.5945  -29.5461   27.1486 C   0  0  0  0  0  0  0  0  0  0  0  0
  -11.0346  -28.0052   26.6257 C   0  0  0  0  0  0  0  0  0  0  0  0
  -11.9831  -27.7233   25.7448 N   0  0  0  0  0  0  0  0  0  0  0  0
  -12.2768  -26.4327   25.9369 C   0  0  0  0  0  0  0  0  0  0  0  0
  -13.9738  -25.8046   25.4758 Br  0  0  0  0  0  0  0  0  0  0  0  0
  -11.1076  -25.8018   26.2290 C   0  0  0  0  0  0  0  0  0  0  0  0
  -10.4372  -26.8131   26.8778 N   0  0  0  0  0  0  0  0  0  0  0  0
  -12.3646  -33.4978   25.4939 C   0  0  0  0  0  0  0  0  0  0  0  0
  -13.2796  -34.5404   25.6930 C   0  0  0  0  0  0  0  0  0  0  0  0
  -13.0008  -35.8562   25.2632 C   0  0  0  0  0  0  0  0  0  0  0  0
  -11.7876  -36.1625   24.6110 C   0  0  0  0  0  0  0  0  0  0  0  0
  -11.3575  -37.4164   24.2060 N   0  0  0  0  0  0  0  0  0  0  0  0
  -10.1751  -37.3151   23.6397 C   0  0  0  0  0  0  0  0  0  0  0  0
   -9.5280  -35.7358   23.5113 S   0  0  0  0  0  0  0  0  0  0  0  0
  -10.9108  -35.1180   24.3381 C   0  0  0  0  0  0  0  0  0  0  0  0
  -11.2012  -33.7968   24.7287 C   0  0  0  0  0  0  0  0  0  0  0  0
  -14.8067  -32.2090   25.9935 H   0  0  0  0  0  0  0  0  0  0  0  0
  -14.2686  -30.6951   26.6283 H   0  0  0  0  0  0  0  0  0  0  0  0
  -14.1220  -32.1764   27.6056 H   0  0  0  0  0  0  0  0  0  0  0  0
  -12.7868  -31.7555   24.9718 H   0  0  0  0  0  0  0  0  0  0  0  0
  -10.6197  -31.8240   26.2417 H   0  0  0  0  0  0  0  0  0  0  0  0
   -9.9851  -29.7156   27.9970 H   0  0  0  0  0  0  0  0  0  0  0  0
   -9.5934  -29.3601   26.7906 H   0  0  0  0  0  0  0  0  0  0  0  0
  -10.8378  -24.7630   26.3684 H   0  0  0  0  0  0  0  0  0  0  0  0
   -9.9046  -26.6037   27.6921 H   0  0  0  0  0  0  0  0  0  0  0  0
  -14.2140  -34.3738   26.2238 H   0  0  0  0  0  0  0  0  0  0  0  0
  -13.7095  -36.6560   25.4591 H   0  0  0  0  0  0  0  0  0  0  0  0
   -9.6402  -38.1779   23.2644 H   0  0  0  0  0  0  0  0  0  0  0  0
  -10.4899  -33.0304   24.4481 H   0  0  0  0  0  0  0  0  0  0  0  0
  1  2  1  0
  2  3  1  0
  3  4  1  0
  4  5  1  0
  5  6  2  0
  6  7  1  0
  7  8  1  0
  7  9  2  0
  9 10  1  0
  2 11  1  0
 11 12  2  0
 12 13  1  0
 13 14  2  0
 14 15  1  0
 15 16  2  0
 16 17  1  0
 17 18  1  0
 18 19  2  0
 10  5  1  0
 19 11  1  0
 18 14  1  0
  1 20  1  0
  1 21  1  0
  1 22  1  0
  2 23  1  0
  3 24  1  0
  4 25  1  0
  4 26  1  0
  9 27  1  0
 10 28  1  0
 12 29  1  0
 13 30  1  0
 16 31  1  0
 19 32  1  0
M  END
>  <Energy>  (248) 
220.50079924682322

>  <compound_id>  (248) 
12513

>  <target_id>  (248) 
1

>  <reference_id>  (248) 
68

>  <inspiration_ids>  (248) 
[115, 68]

>  <energy_score>  (248) 
138.31550034200143

>  <distance_score>  (248) 
4.166838898893782

>  <path>  (248) 
/opt/xchem-fragalysis-2/maxwin/BulkDock/SCRATCH/511014/C12513-P68/C12513-P68.minimised.mol

>  <scratch_subdir>  (248) 
/opt/xchem-fragalysis-2/maxwin/BulkDock/SCRATCH/511014/C12513-P68

>  <fragmenstein_runtime>  (248) 
6.786450147628784

>  <fragmenstein_outcome>  (248) 
too moved

>  <fragmenstein_mode>  (248) 
expansion

>  <fragmenstein_error>  (248) 


$$$$
C12514-P115
     RDKit          3D

 39 42  0  0  0  0  0  0  0  0999 V2000
  -13.4369  -28.6250   29.3792 C   0  0  0  0  0  0  0  0  0  0  0  0
  -12.7313  -27.5291   28.9800 C   0  0  0  0  0  0  0  0  0  0  0  0
  -11.9052  -27.9734   27.9796 N   0  0  0  0  0  0  0  0  0  0  0  0
  -11.2461  -26.9654   27.0693 C   0  0  0  0  0  0  0  0  0  0  0  0
  -10.8577  -25.5842   27.5738 C   0  0  0  0  0  0  0  0  0  0  0  0
  -11.9699  -25.7259   26.5815 C   0  0  0  0  0  0  0  0  0  0  0  0
  -12.0419  -29.4072   27.8982 C   0  0  0  0  0  0  0  0  0  0  0  0
  -11.3233  -30.6220   26.9098 C   0  0  0  0  0  0  0  0  0  0  0  0
  -10.8408  -30.3238   25.5354 N   0  0  0  0  0  0  0  0  0  0  0  0
  -10.3928  -31.4308   24.6250 C   0  0  0  0  0  0  0  0  0  0  0  0
  -11.3562  -32.5578   24.1519 C   0  0  0  0  0  0  0  0  0  0  0  0
  -10.6291  -33.8853   23.9070 C   0  0  0  0  0  0  0  0  0  0  0  0
  -10.9006  -34.9795   24.7387 C   0  0  0  0  0  0  0  0  0  0  0  0
  -10.1274  -36.1481   24.6871 C   0  0  0  0  0  0  0  0  0  0  0  0
   -9.0673  -36.2523   23.7678 C   0  0  0  0  0  0  0  0  0  0  0  0
   -8.1838  -37.3181   23.6640 N   0  0  0  0  0  0  0  0  0  0  0  0
   -7.3396  -37.0863   22.6855 C   0  0  0  0  0  0  0  0  0  0  0  0
   -7.5359  -35.6098   21.8428 S   0  0  0  0  0  0  0  0  0  0  0  0
   -8.8526  -35.1948   22.8803 C   0  0  0  0  0  0  0  0  0  0  0  0
   -9.6242  -34.0099   22.9269 C   0  0  0  0  0  0  0  0  0  0  0  0
  -12.9863  -29.7569   28.7715 N   0  0  0  0  0  0  0  0  0  0  0  0
  -14.2758  -28.6921   30.0547 H   0  0  0  0  0  0  0  0  0  0  0  0
  -12.8193  -26.4855   29.2324 H   0  0  0  0  0  0  0  0  0  0  0  0
  -10.6477  -27.4148   26.2828 H   0  0  0  0  0  0  0  0  0  0  0  0
   -9.9451  -25.1170   27.2412 H   0  0  0  0  0  0  0  0  0  0  0  0
  -11.1136  -25.2758   28.5810 H   0  0  0  0  0  0  0  0  0  0  0  0
  -12.9840  -25.5445   26.9104 H   0  0  0  0  0  0  0  0  0  0  0  0
  -11.7849  -25.4020   25.5642 H   0  0  0  0  0  0  0  0  0  0  0  0
  -10.4696  -31.0434   27.4013 H   0  0  0  0  0  0  0  0  0  0  0  0
  -12.1333  -31.3548   26.8253 H   0  0  0  0  0  0  0  0  0  0  0  0
  -10.0363  -29.6925   25.5798 H   0  0  0  0  0  0  0  0  0  0  0  0
  -10.0171  -30.9437   23.7153 H   0  0  0  0  0  0  0  0  0  0  0  0
   -9.4906  -31.8512   25.0650 H   0  0  0  0  0  0  0  0  0  0  0  0
  -11.8730  -32.2538   23.2340 H   0  0  0  0  0  0  0  0  0  0  0  0
  -12.1345  -32.7122   24.9077 H   0  0  0  0  0  0  0  0  0  0  0  0
  -11.6858  -34.9164   25.4908 H   0  0  0  0  0  0  0  0  0  0  0  0
  -10.3218  -36.9661   25.3739 H   0  0  0  0  0  0  0  0  0  0  0  0
   -6.5622  -37.7885   22.4145 H   0  0  0  0  0  0  0  0  0  0  0  0
   -9.3920  -33.1824   22.2596 H   0  0  0  0  0  0  0  0  0  0  0  0
  1  2  2  0
  2  3  1  0
  3  4  1  0
  4  5  1  0
  5  6  1  0
  3  7  1  0
  7  8  1  0
  8  9  1  0
  9 10  1  0
 10 11  1  0
 11 12  1  0
 12 13  2  0
 13 14  1  0
 14 15  2  0
 15 16  1  0
 16 17  2  0
 17 18  1  0
 18 19  1  0
 19 20  2  0
  7 21  2  0
 21  1  1  0
  6  4  1  0
 20 12  1  0
 19 15  1  0
  1 22  1  0
  2 23  1  0
  4 24  1  0
  5 25  1  0
  5 26  1  0
  6 27  1  0
  6 28  1  0
  8 29  1  0
  8 30  1  0
  9 31  1  0
 10 32  1  0
 10 33  1  0
 11 34  1  0
 11 35  1  0
 13 36  1  0
 14 37  1  0
 17 38  1  0
 20 39  1  0
M  END
>  <Energy>  (249) 
103.84716241441443

>  <compound_id>  (249) 
12514

>  <target_id>  (249) 
1

>  <reference_id>  (249) 
115

>  <inspiration_ids>  (249) 
[115, 68]

>  <energy_score>  (249) 
-29.76979796784798

>  <distance_score>  (249) 
2.8701909253650597

>  <path>  (249) 
/opt/xchem-fragalysis-2/maxwin/BulkDock/SCRATCH/511014/C12514-P115/C12514-P115.minimised.mol

>  <scratch_subdir>  (249) 
/opt/xchem-fragalysis-2/maxwin/BulkDock/SCRATCH/511014/C12514-P115

>  <fragmenstein_runtime>  (249) 
2.847074508666992

>  <fragmenstein_outcome>  (249) 
too moved

>  <fragmenstein_mode>  (249) 
expansion

>  <fragmenstein_error>  (249) 


$$$$
C12514-P68
     RDKit          3D

 39 42  0  0  0  0  0  0  0  0999 V2000
   -9.4944  -27.9491   29.4817 C   0  0  0  0  0  0  0  0  0  0  0  0
   -9.9089  -27.5345   28.2460 C   0  0  0  0  0  0  0  0  0  0  0  0
   -8.8452  -28.4865   27.7848 N   0  0  0  0  0  0  0  0  0  0  0  0
   -7.1594  -28.4498   28.7488 C   0  0  0  0  0  0  0  0  0  0  0  0
   -6.1306  -28.2738   27.6172 C   0  0  0  0  0  0  0  0  0  0  0  0
   -5.7296  -28.7290   28.8993 C   0  0  0  0  0  0  0  0  0  0  0  0
   -9.6899  -29.4977   27.7641 C   0  0  0  0  0  0  0  0  0  0  0  0
  -11.1904  -29.1749   27.2138 C   0  0  0  0  0  0  0  0  0  0  0  0
  -12.5295  -30.4195   26.4615 N   0  0  0  0  0  0  0  0  0  0  0  0
  -12.6024  -31.8691   26.1278 C   0  0  0  0  0  0  0  0  0  0  0  0
  -13.1083  -32.7111   24.8756 C   0  0  0  0  0  0  0  0  0  0  0  0
  -12.4348  -34.0864   24.7808 C   0  0  0  0  0  0  0  0  0  0  0  0
  -13.1095  -35.2515   25.1394 C   0  0  0  0  0  0  0  0  0  0  0  0
  -12.4695  -36.5003   25.0663 C   0  0  0  0  0  0  0  0  0  0  0  0
  -11.1297  -36.5986   24.6324 C   0  0  0  0  0  0  0  0  0  0  0  0
  -10.3800  -37.7608   24.5534 N   0  0  0  0  0  0  0  0  0  0  0  0
   -9.1683  -37.4761   24.1313 C   0  0  0  0  0  0  0  0  0  0  0  0
   -8.8668  -35.8346   23.7520 S   0  0  0  0  0  0  0  0  0  0  0  0
  -10.4688  -35.4321   24.2502 C   0  0  0  0  0  0  0  0  0  0  0  0
  -11.1032  -34.1769   24.3082 C   0  0  0  0  0  0  0  0  0  0  0  0
   -9.0564  -29.2323   29.0468 N   0  0  0  0  0  0  0  0  0  0  0  0
   -9.2957  -27.5257   30.4362 H   0  0  0  0  0  0  0  0  0  0  0  0
  -10.1244  -26.6415   27.6674 H   0  0  0  0  0  0  0  0  0  0  0  0
   -7.3322  -29.1969   29.5176 H   0  0  0  0  0  0  0  0  0  0  0  0
   -6.8520  -28.5663   26.9187 H   0  0  0  0  0  0  0  0  0  0  0  0
   -5.6662  -27.5066   27.0291 H   0  0  0  0  0  0  0  0  0  0  0  0
   -5.0071  -29.5319   28.8187 H   0  0  0  0  0  0  0  0  0  0  0  0
   -5.5730  -28.2712   29.8516 H   0  0  0  0  0  0  0  0  0  0  0  0
  -11.1953  -28.2660   26.5362 H   0  0  0  0  0  0  0  0  0  0  0  0
  -11.5568  -28.7306   28.1333 H   0  0  0  0  0  0  0  0  0  0  0  0
  -13.4064  -29.9177   26.5265 H   0  0  0  0  0  0  0  0  0  0  0  0
  -13.1953  -32.3074   26.9287 H   0  0  0  0  0  0  0  0  0  0  0  0
  -11.5801  -32.1549   26.0708 H   0  0  0  0  0  0  0  0  0  0  0  0
  -12.8428  -32.2800   23.9078 H   0  0  0  0  0  0  0  0  0  0  0  0
  -14.2001  -32.8033   24.9027 H   0  0  0  0  0  0  0  0  0  0  0  0
  -14.1394  -35.2090   25.4876 H   0  0  0  0  0  0  0  0  0  0  0  0
  -12.9966  -37.4056   25.3528 H   0  0  0  0  0  0  0  0  0  0  0  0
   -8.4028  -38.2343   24.0217 H   0  0  0  0  0  0  0  0  0  0  0  0
  -10.5538  -33.2869   24.0129 H   0  0  0  0  0  0  0  0  0  0  0  0
  1  2  2  0
  2  3  1  0
  3  4  1  0
  4  5  1  0
  5  6  1  0
  3  7  1  0
  7  8  1  0
  8  9  1  0
  9 10  1  0
 10 11  1  0
 11 12  1  0
 12 13  2  0
 13 14  1  0
 14 15  2  0
 15 16  1  0
 16 17  2  0
 17 18  1  0
 18 19  1  0
 19 20  2  0
  7 21  2  0
 21  1  1  0
  6  4  1  0
 20 12  1  0
 19 15  1  0
  1 22  1  0
  2 23  1  0
  4 24  1  0
  5 25  1  0
  5 26  1  0
  6 27  1  0
  6 28  1  0
  8 29  1  0
  8 30  1  0
  9 31  1  0
 10 32  1  0
 10 33  1  0
 11 34  1  0
 11 35  1  0
 13 36  1  0
 14 37  1  0
 17 38  1  0
 20 39  1  0
M  END
>  <Energy>  (250) 
541.05873618340092

>  <compound_id>  (250) 
12514

>  <target_id>  (250) 
1

>  <reference_id>  (250) 
68

>  <inspiration_ids>  (250) 
[115, 68]

>  <energy_score>  (250) 
382.7461272255189

>  <distance_score>  (250) 
3.2587853035780547

>  <path>  (250) 
/opt/xchem-fragalysis-2/maxwin/BulkDock/SCRATCH/511014/C12514-P68/C12514-P68.minimised.mol

>  <scratch_subdir>  (250) 
/opt/xchem-fragalysis-2/maxwin/BulkDock/SCRATCH/511014/C12514-P68

>  <fragmenstein_runtime>  (250) 
6.822485446929932

>  <fragmenstein_outcome>  (250) 
too moved

>  <fragmenstein_mode>  (250) 
expansion

>  <fragmenstein_error>  (250) 


$$$$
C12515-P115
     RDKit          3D

 44 46  0  0  0  0  0  0  0  0999 V2000
  -13.2443  -32.9734   25.1745 C   0  0  0  0  0  0  0  0  0  0  0  0
  -11.9168  -32.5076   24.5730 C   0  0  0  0  0  0  0  0  0  0  0  0
  -11.5076  -31.1802   25.1085 N   0  0  0  0  0  0  0  0  0  0  0  0
  -10.9973  -30.7424   26.4609 C   0  0  0  0  0  0  0  0  0  0  0  0
  -11.9126  -29.7780   27.6589 C   0  0  0  0  0  0  0  0  0  0  0  0
  -12.7897  -30.3436   28.4927 N   0  0  0  0  0  0  0  0  0  0  0  0
  -13.2823  -29.4037   29.3627 C   0  0  0  0  0  0  0  0  0  0  0  0
  -12.7439  -28.1827   29.1123 C   0  0  0  0  0  0  0  0  0  0  0  0
  -11.9554  -28.2966   27.9665 N   0  0  0  0  0  0  0  0  0  0  0  0
  -11.5520  -27.0048   27.3143 C   0  0  0  0  0  0  0  0  0  0  0  0
  -10.5835  -26.2145   28.2492 C   0  0  0  0  0  0  0  0  0  0  0  0
  -12.8114  -26.0953   27.1447 C   0  0  0  0  0  0  0  0  0  0  0  0
  -10.9155  -27.0025   25.9197 C   0  0  0  0  0  0  0  0  0  0  0  0
  -10.9120  -33.6675   24.3485 C   0  0  0  0  0  0  0  0  0  0  0  0
  -11.0262  -34.8734   25.0702 C   0  0  0  0  0  0  0  0  0  0  0  0
  -10.1633  -35.9654   24.8750 C   0  0  0  0  0  0  0  0  0  0  0  0
   -9.1576  -35.9002   23.8993 C   0  0  0  0  0  0  0  0  0  0  0  0
   -8.2161  -36.8875   23.6397 N   0  0  0  0  0  0  0  0  0  0  0  0
   -7.4486  -36.5000   22.6483 C   0  0  0  0  0  0  0  0  0  0  0  0
   -7.8059  -34.9713   21.9632 S   0  0  0  0  0  0  0  0  0  0  0  0
   -9.0722  -34.7429   23.1203 C   0  0  0  0  0  0  0  0  0  0  0  0
   -9.9248  -33.6217   23.3357 C   0  0  0  0  0  0  0  0  0  0  0  0
  -13.1832  -33.1611   26.2478 H   0  0  0  0  0  0  0  0  0  0  0  0
  -14.0403  -32.2416   25.0348 H   0  0  0  0  0  0  0  0  0  0  0  0
  -13.6017  -33.8908   24.6914 H   0  0  0  0  0  0  0  0  0  0  0  0
  -12.2075  -32.2660   23.5383 H   0  0  0  0  0  0  0  0  0  0  0  0
  -10.9737  -30.6927   24.3765 H   0  0  0  0  0  0  0  0  0  0  0  0
  -10.1804  -30.0884   26.1524 H   0  0  0  0  0  0  0  0  0  0  0  0
  -10.5193  -31.5394   26.9690 H   0  0  0  0  0  0  0  0  0  0  0  0
  -13.9869  -29.6850   30.1337 H   0  0  0  0  0  0  0  0  0  0  0  0
  -12.8719  -27.2320   29.5942 H   0  0  0  0  0  0  0  0  0  0  0  0
  -10.9607  -26.1252   29.2729 H   0  0  0  0  0  0  0  0  0  0  0  0
   -9.5951  -26.6740   28.3069 H   0  0  0  0  0  0  0  0  0  0  0  0
  -10.4298  -25.1922   27.8813 H   0  0  0  0  0  0  0  0  0  0  0  0
  -13.2452  -25.8270   28.1088 H   0  0  0  0  0  0  0  0  0  0  0  0
  -13.6003  -26.5741   26.5574 H   0  0  0  0  0  0  0  0  0  0  0  0
  -12.5602  -25.1522   26.6437 H   0  0  0  0  0  0  0  0  0  0  0  0
  -10.0225  -27.6151   25.8471 H   0  0  0  0  0  0  0  0  0  0  0  0
  -10.6673  -25.9677   25.6739 H   0  0  0  0  0  0  0  0  0  0  0  0
  -11.5719  -27.2650   25.0941 H   0  0  0  0  0  0  0  0  0  0  0  0
  -11.7816  -34.9880   25.8461 H   0  0  0  0  0  0  0  0  0  0  0  0
  -10.2628  -36.8583   25.4847 H   0  0  0  0  0  0  0  0  0  0  0  0
   -6.6393  -37.1095   22.2690 H   0  0  0  0  0  0  0  0  0  0  0  0
   -9.8093  -32.7307   22.7219 H   0  0  0  0  0  0  0  0  0  0  0  0
  1  2  1  0
  2  3  1  0
  3  4  1  0
  4  5  1  0
  5  6  2  0
  6  7  1  0
  7  8  2  0
  8  9  1  0
  9 10  1  0
 10 11  1  0
 10 12  1  0
 10 13  1  0
  2 14  1  0
 14 15  2  0
 15 16  1  0
 16 17  2  0
 17 18  1  0
 18 19  2  0
 19 20  1  0
 20 21  1  0
 21 22  2  0
  9  5  1  0
 22 14  1  0
 21 17  1  0
  1 23  1  0
  1 24  1  0
  1 25  1  0
  2 26  1  0
  3 27  1  0
  4 28  1  0
  4 29  1  0
  7 30  1  0
  8 31  1  0
 11 32  1  0
 11 33  1  0
 11 34  1  0
 12 35  1  0
 12 36  1  0
 12 37  1  0
 13 38  1  0
 13 39  1  0
 13 40  1  0
 15 41  1  0
 16 42  1  0
 19 43  1  0
 22 44  1  0
M  END
>  <Energy>  (251) 
121.30229785925468

>  <compound_id>  (251) 
12515

>  <target_id>  (251) 
1

>  <reference_id>  (251) 
115

>  <inspiration_ids>  (251) 
[115, 68]

>  <energy_score>  (251) 
5.336892162053346

>  <distance_score>  (251) 
3.2323534821155406

>  <path>  (251) 
/opt/xchem-fragalysis-2/maxwin/BulkDock/SCRATCH/511014/C12515-P115/C12515-P115.minimised.mol

>  <scratch_subdir>  (251) 
/opt/xchem-fragalysis-2/maxwin/BulkDock/SCRATCH/511014/C12515-P115

>  <fragmenstein_runtime>  (251) 
4.420904874801636

>  <fragmenstein_outcome>  (251) 
too moved

>  <fragmenstein_mode>  (251) 
expansion

>  <fragmenstein_error>  (251) 


$$$$
C12515-P68
     RDKit          3D

 44 46  0  0  0  0  0  0  0  0999 V2000
  -14.1998  -31.3241   26.1267 C   0  0  0  0  0  0  0  0  0  0  0  0
  -12.7663  -31.9011   26.1118 C   0  0  0  0  0  0  0  0  0  0  0  0
  -11.3865  -31.2952   26.4963 N   0  0  0  0  0  0  0  0  0  0  0  0
  -10.5007  -29.6651   27.1795 C   0  0  0  0  0  0  0  0  0  0  0  0
   -9.3269  -29.4451   28.1290 C   0  0  0  0  0  0  0  0  0  0  0  0
   -8.8236  -29.1798   29.4422 N   0  0  0  0  0  0  0  0  0  0  0  0
   -9.3709  -27.9736   29.6850 C   0  0  0  0  0  0  0  0  0  0  0  0
   -9.8081  -27.6798   28.3936 C   0  0  0  0  0  0  0  0  0  0  0  0
   -8.4145  -28.5038   27.9143 N   0  0  0  0  0  0  0  0  0  0  0  0
   -6.6832  -28.1278   28.3944 C   0  0  0  0  0  0  0  0  0  0  0  0
   -5.7287  -27.9953   27.0449 C   0  0  0  0  0  0  0  0  0  0  0  0
   -5.9183  -29.0358   29.1907 C   0  0  0  0  0  0  0  0  0  0  0  0
   -6.3956  -26.9568   29.6680 C   0  0  0  0  0  0  0  0  0  0  0  0
  -12.5904  -33.2370   25.2259 C   0  0  0  0  0  0  0  0  0  0  0  0
  -13.5504  -34.2567   25.3490 C   0  0  0  0  0  0  0  0  0  0  0  0
  -13.3488  -35.5447   24.8112 C   0  0  0  0  0  0  0  0  0  0  0  0
  -12.1571  -35.8595   24.1296 C   0  0  0  0  0  0  0  0  0  0  0  0
  -11.7929  -37.0966   23.6212 N   0  0  0  0  0  0  0  0  0  0  0  0
  -10.6013  -37.0148   23.0720 C   0  0  0  0  0  0  0  0  0  0  0  0
   -9.8624  -35.4719   23.0913 S   0  0  0  0  0  0  0  0  0  0  0  0
  -11.2235  -34.8461   23.9514 C   0  0  0  0  0  0  0  0  0  0  0  0
  -11.4324  -33.5463   24.4626 C   0  0  0  0  0  0  0  0  0  0  0  0
  -14.7852  -31.7281   26.9675 H   0  0  0  0  0  0  0  0  0  0  0  0
  -14.2496  -30.2561   26.2640 H   0  0  0  0  0  0  0  0  0  0  0  0
  -14.7727  -31.5973   25.2335 H   0  0  0  0  0  0  0  0  0  0  0  0
  -13.0063  -32.4297   27.0167 H   0  0  0  0  0  0  0  0  0  0  0  0
  -10.6539  -31.9176   26.1946 H   0  0  0  0  0  0  0  0  0  0  0  0
  -10.1918  -28.8718   26.4472 H   0  0  0  0  0  0  0  0  0  0  0  0
  -11.3048  -29.0503   27.5464 H   0  0  0  0  0  0  0  0  0  0  0  0
   -9.3045  -27.4121   30.5797 H   0  0  0  0  0  0  0  0  0  0  0  0
  -10.1043  -26.8579   27.7481 H   0  0  0  0  0  0  0  0  0  0  0  0
   -4.9495  -28.7665   27.0058 H   0  0  0  0  0  0  0  0  0  0  0  0
   -6.2331  -27.9447   26.1078 H   0  0  0  0  0  0  0  0  0  0  0  0
   -5.2206  -27.0594   26.7810 H   0  0  0  0  0  0  0  0  0  0  0  0
   -6.7150  -29.5598   29.6391 H   0  0  0  0  0  0  0  0  0  0  0  0
   -5.3625  -28.6509   30.0220 H   0  0  0  0  0  0  0  0  0  0  0  0
   -5.0356  -29.5482   28.7624 H   0  0  0  0  0  0  0  0  0  0  0  0
   -5.7642  -26.1416   29.3795 H   0  0  0  0  0  0  0  0  0  0  0  0
   -5.7238  -27.1457   30.5026 H   0  0  0  0  0  0  0  0  0  0  0  0
   -7.2998  -26.5709   30.1364 H   0  0  0  0  0  0  0  0  0  0  0  0
  -14.4570  -34.0915   25.9299 H   0  0  0  0  0  0  0  0  0  0  0  0
  -14.0953  -36.3208   24.9548 H   0  0  0  0  0  0  0  0  0  0  0  0
  -10.1134  -37.8706   22.6236 H   0  0  0  0  0  0  0  0  0  0  0  0
  -10.6183  -32.8540   24.3062 H   0  0  0  0  0  0  0  0  0  0  0  0
  1  2  1  0
  2  3  1  0
  3  4  1  0
  4  5  1  0
  5  6  2  0
  6  7  1  0
  7  8  2  0
  8  9  1  0
  9 10  1  0
 10 11  1  0
 10 12  1  0
 10 13  1  0
  2 14  1  0
 14 15  2  0
 15 16  1  0
 16 17  2  0
 17 18  1  0
 18 19  2  0
 19 20  1  0
 20 21  1  0
 21 22  2  0
  9  5  1  0
 22 14  1  0
 21 17  1  0
  1 23  1  0
  1 24  1  0
  1 25  1  0
  2 26  1  0
  3 27  1  0
  4 28  1  0
  4 29  1  0
  7 30  1  0
  8 31  1  0
 11 32  1  0
 11 33  1  0
 11 34  1  0
 12 35  1  0
 12 36  1  0
 12 37  1  0
 13 38  1  0
 13 39  1  0
 13 40  1  0
 15 41  1  0
 16 42  1  0
 19 43  1  0
 22 44  1  0
M  END
>  <Energy>  (252) 
532.1177870685691

>  <compound_id>  (252) 
12515

>  <target_id>  (252) 
1

>  <reference_id>  (252) 
68

>  <inspiration_ids>  (252) 
[115, 68]

>  <energy_score>  (252) 
385.73712350515916

>  <distance_score>  (252) 
3.7378909666063214

>  <path>  (252) 
/opt/xchem-fragalysis-2/maxwin/BulkDock/SCRATCH/511014/C12515-P68/C12515-P68.minimised.mol

>  <scratch_subdir>  (252) 
/opt/xchem-fragalysis-2/maxwin/BulkDock/SCRATCH/511014/C12515-P68

>  <fragmenstein_runtime>  (252) 
12.606717348098755

>  <fragmenstein_outcome>  (252) 
too moved

>  <fragmenstein_mode>  (252) 
expansion

>  <fragmenstein_error>  (252) 


$$$$
C12516-P115
     RDKit          3D

 40 42  0  0  0  0  0  0  0  0999 V2000
  -10.7831  -30.4917   26.3523 O   0  0  0  0  0  0  0  0  0  0  0  0
  -10.2877  -29.8818   25.4878 C   0  0  0  0  0  0  0  0  0  0  0  0
  -10.3001  -28.2243   25.5318 C   0  0  0  0  0  0  0  0  0  0  0  0
  -10.9957  -27.0920   26.4447 C   0  0  0  0  0  0  0  0  0  0  0  0
  -11.6818  -27.2567   27.8247 C   0  0  0  0  0  0  0  0  0  0  0  0
  -11.1971  -26.3723   28.8985 N   0  0  0  0  0  0  0  0  0  0  0  0
  -11.3899  -25.0158   28.9103 C   0  0  0  0  0  0  0  0  0  0  0  0
  -11.1477  -24.6130   30.2012 C   0  0  0  0  0  0  0  0  0  0  0  0
  -10.7075  -25.6547   30.9573 N   0  0  0  0  0  0  0  0  0  0  0  0
  -10.7384  -26.6908   30.1490 C   0  0  0  0  0  0  0  0  0  0  0  0
   -9.6363  -30.3600   24.1709 N   0  0  0  0  0  0  0  0  0  0  0  0
   -9.3733  -31.6900   23.6868 C   0  0  0  0  0  0  0  0  0  0  0  0
  -10.5862  -32.5585   23.2797 C   0  0  0  0  0  0  0  0  0  0  0  0
  -10.1442  -34.0184   23.2892 C   0  0  0  0  0  0  0  0  0  0  0  0
  -10.5601  -34.8713   24.3164 C   0  0  0  0  0  0  0  0  0  0  0  0
   -9.9437  -36.1143   24.5149 C   0  0  0  0  0  0  0  0  0  0  0  0
   -8.8913  -36.5197   23.6709 C   0  0  0  0  0  0  0  0  0  0  0  0
   -8.1315  -37.6723   23.8091 N   0  0  0  0  0  0  0  0  0  0  0  0
   -7.2449  -37.7273   22.8416 C   0  0  0  0  0  0  0  0  0  0  0  0
   -7.2550  -36.4346   21.7213 S   0  0  0  0  0  0  0  0  0  0  0  0
   -8.5415  -35.6962   22.5992 C   0  0  0  0  0  0  0  0  0  0  0  0
   -9.1701  -34.4583   22.3740 C   0  0  0  0  0  0  0  0  0  0  0  0
   -9.2446  -28.0415   25.7273 H   0  0  0  0  0  0  0  0  0  0  0  0
  -10.6095  -27.9277   24.5337 H   0  0  0  0  0  0  0  0  0  0  0  0
  -11.7231  -26.5856   25.7914 H   0  0  0  0  0  0  0  0  0  0  0  0
  -10.2431  -26.3214   26.5973 H   0  0  0  0  0  0  0  0  0  0  0  0
  -11.7241  -28.2774   28.1864 H   0  0  0  0  0  0  0  0  0  0  0  0
  -12.7363  -26.9638   27.7127 H   0  0  0  0  0  0  0  0  0  0  0  0
  -11.7449  -24.4704   28.0464 H   0  0  0  0  0  0  0  0  0  0  0  0
  -11.2722  -23.6233   30.6188 H   0  0  0  0  0  0  0  0  0  0  0  0
  -10.4736  -27.6824   30.4645 H   0  0  0  0  0  0  0  0  0  0  0  0
   -9.3808  -29.5611   23.6126 H   0  0  0  0  0  0  0  0  0  0  0  0
   -8.6648  -31.5996   22.8563 H   0  0  0  0  0  0  0  0  0  0  0  0
   -8.8645  -32.1923   24.5061 H   0  0  0  0  0  0  0  0  0  0  0  0
  -11.4169  -32.4081   23.9791 H   0  0  0  0  0  0  0  0  0  0  0  0
  -10.9483  -32.2759   22.2848 H   0  0  0  0  0  0  0  0  0  0  0  0
  -11.3181  -34.5461   25.0273 H   0  0  0  0  0  0  0  0  0  0  0  0
  -10.2373  -36.7468   25.3470 H   0  0  0  0  0  0  0  0  0  0  0  0
   -6.5440  -38.5465   22.7482 H   0  0  0  0  0  0  0  0  0  0  0  0
   -8.8251  -33.8120   21.5704 H   0  0  0  0  0  0  0  0  0  0  0  0
  1  2  2  0
  2  3  1  0
  3  4  1  0
  4  5  1  0
  5  6  1  0
  6  7  1  0
  7  8  2  0
  8  9  1  0
  9 10  2  0
  2 11  1  0
 11 12  1  0
 12 13  1  0
 13 14  1  0
 14 15  2  0
 15 16  1  0
 16 17  2  0
 17 18  1  0
 18 19  2  0
 19 20  1  0
 20 21  1  0
 21 22  2  0
 10  6  1  0
 22 14  1  0
 21 17  1  0
  3 23  1  0
  3 24  1  0
  4 25  1  0
  4 26  1  0
  5 27  1  0
  5 28  1  0
  7 29  1  0
  8 30  1  0
 10 31  1  0
 11 32  1  0
 12 33  1  0
 12 34  1  0
 13 35  1  0
 13 36  1  0
 15 37  1  0
 16 38  1  0
 19 39  1  0
 22 40  1  0
M  END
>  <Energy>  (253) 
63.88531634444503

>  <compound_id>  (253) 
12516

>  <target_id>  (253) 
1

>  <reference_id>  (253) 
115

>  <inspiration_ids>  (253) 
[115, 68]

>  <energy_score>  (253) 
22.82728102066301

>  <distance_score>  (253) 
1.4626708797774202

>  <path>  (253) 
/opt/xchem-fragalysis-2/maxwin/BulkDock/SCRATCH/511014/C12516-P115/C12516-P115.minimised.mol

>  <scratch_subdir>  (253) 
/opt/xchem-fragalysis-2/maxwin/BulkDock/SCRATCH/511014/C12516-P115

>  <fragmenstein_runtime>  (253) 
2.1491997241973877

>  <fragmenstein_outcome>  (253) 
too moved

>  <fragmenstein_mode>  (253) 
expansion

>  <fragmenstein_error>  (253) 


$$$$
C12516-P68
     RDKit          3D

 40 42  0  0  0  0  0  0  0  0999 V2000
  -12.0304  -28.0149   25.6984 O   0  0  0  0  0  0  0  0  0  0  0  0
  -12.9233  -27.5301   25.0647 C   0  0  0  0  0  0  0  0  0  0  0  0
  -13.7558  -26.3748   25.4888 C   0  0  0  0  0  0  0  0  0  0  0  0
  -12.8735  -25.2837   26.0484 C   0  0  0  0  0  0  0  0  0  0  0  0
  -11.3046  -25.2691   26.2141 C   0  0  0  0  0  0  0  0  0  0  0  0
  -10.9549  -23.9988   26.8563 N   0  0  0  0  0  0  0  0  0  0  0  0
  -11.7021  -22.8518   26.8450 C   0  0  0  0  0  0  0  0  0  0  0  0
  -11.4049  -22.2169   28.0238 C   0  0  0  0  0  0  0  0  0  0  0  0
  -10.3125  -22.7758   28.5785 N   0  0  0  0  0  0  0  0  0  0  0  0
  -10.0459  -23.8320   27.8460 C   0  0  0  0  0  0  0  0  0  0  0  0
  -13.6414  -28.0404   23.5137 N   0  0  0  0  0  0  0  0  0  0  0  0
  -13.2188  -29.9692   22.2224 C   0  0  0  0  0  0  0  0  0  0  0  0
  -13.6182  -31.7811   22.5465 C   0  0  0  0  0  0  0  0  0  0  0  0
  -12.5224  -32.8111   22.8219 C   0  0  0  0  0  0  0  0  0  0  0  0
  -12.2459  -33.1956   24.1394 C   0  0  0  0  0  0  0  0  0  0  0  0
  -11.2830  -34.1689   24.4361 C   0  0  0  0  0  0  0  0  0  0  0  0
  -10.6580  -34.8811   23.4037 C   0  0  0  0  0  0  0  0  0  0  0  0
   -9.7294  -35.8954   23.5684 N   0  0  0  0  0  0  0  0  0  0  0  0
   -9.4200  -36.3945   22.3956 C   0  0  0  0  0  0  0  0  0  0  0  0
  -10.2292  -35.7100   21.0524 S   0  0  0  0  0  0  0  0  0  0  0  0
  -11.0027  -34.5692   22.0885 C   0  0  0  0  0  0  0  0  0  0  0  0
  -11.8850  -33.5062   21.7741 C   0  0  0  0  0  0  0  0  0  0  0  0
  -14.4586  -26.7531   26.2274 H   0  0  0  0  0  0  0  0  0  0  0  0
  -14.3660  -25.9745   24.6732 H   0  0  0  0  0  0  0  0  0  0  0  0
  -13.2276  -25.1599   27.0506 H   0  0  0  0  0  0  0  0  0  0  0  0
  -13.2324  -24.3771   25.5474 H   0  0  0  0  0  0  0  0  0  0  0  0
  -10.6259  -25.3397   25.3876 H   0  0  0  0  0  0  0  0  0  0  0  0
  -10.9021  -26.1287   26.7547 H   0  0  0  0  0  0  0  0  0  0  0  0
  -12.4419  -22.6120   26.0973 H   0  0  0  0  0  0  0  0  0  0  0  0
  -11.9374  -21.3994   28.4767 H   0  0  0  0  0  0  0  0  0  0  0  0
   -9.3086  -24.5604   28.0634 H   0  0  0  0  0  0  0  0  0  0  0  0
  -14.4443  -27.4463   23.3071 H   0  0  0  0  0  0  0  0  0  0  0  0
  -12.1071  -30.3581   22.0094 H   0  0  0  0  0  0  0  0  0  0  0  0
  -13.5213  -30.0705   21.1046 H   0  0  0  0  0  0  0  0  0  0  0  0
  -14.4346  -31.9407   23.2725 H   0  0  0  0  0  0  0  0  0  0  0  0
  -14.0700  -32.0861   21.5872 H   0  0  0  0  0  0  0  0  0  0  0  0
  -12.7663  -32.7277   24.9735 H   0  0  0  0  0  0  0  0  0  0  0  0
  -11.0223  -34.4021   25.4589 H   0  0  0  0  0  0  0  0  0  0  0  0
   -8.7102  -37.2041   22.2825 H   0  0  0  0  0  0  0  0  0  0  0  0
  -12.1192  -33.2909   20.7342 H   0  0  0  0  0  0  0  0  0  0  0  0
  1  2  2  0
  2  3  1  0
  3  4  1  0
  4  5  1  0
  5  6  1  0
  6  7  1  0
  7  8  2  0
  8  9  1  0
  9 10  2  0
  2 11  1  0
 11 12  1  0
 12 13  1  0
 13 14  1  0
 14 15  2  0
 15 16  1  0
 16 17  2  0
 17 18  1  0
 18 19  2  0
 19 20  1  0
 20 21  1  0
 21 22  2  0
 10  6  1  0
 22 14  1  0
 21 17  1  0
  3 23  1  0
  3 24  1  0
  4 25  1  0
  4 26  1  0
  5 27  1  0
  5 28  1  0
  7 29  1  0
  8 30  1  0
 10 31  1  0
 11 32  1  0
 12 33  1  0
 12 34  1  0
 13 35  1  0
 13 36  1  0
 15 37  1  0
 16 38  1  0
 19 39  1  0
 22 40  1  0
M  END
>  <Energy>  (254) 
505.29971078439581

>  <compound_id>  (254) 
12516

>  <target_id>  (254) 
1

>  <reference_id>  (254) 
68

>  <inspiration_ids>  (254) 
[115, 68]

>  <energy_score>  (254) 
434.1032517874739

>  <distance_score>  (254) 
3.414811905526337

>  <path>  (254) 
/opt/xchem-fragalysis-2/maxwin/BulkDock/SCRATCH/511014/C12516-P68/C12516-P68.minimised.mol

>  <scratch_subdir>  (254) 
/opt/xchem-fragalysis-2/maxwin/BulkDock/SCRATCH/511014/C12516-P68

>  <fragmenstein_runtime>  (254) 
16.34626293182373

>  <fragmenstein_outcome>  (254) 
too moved

>  <fragmenstein_mode>  (254) 
expansion

>  <fragmenstein_error>  (254) 


$$$$
C12517-P115
     RDKit          3D

 38 40  0  0  0  0  0  0  0  0999 V2000
   -9.5606  -30.9409   21.8242 C   0  0  0  0  0  0  0  0  0  0  0  0
   -9.2863  -31.1287   23.3120 C   0  0  0  0  0  0  0  0  0  0  0  0
   -9.7102  -29.9027   23.9751 N   0  0  0  0  0  0  0  0  0  0  0  0
  -10.0899  -29.6475   25.3297 C   0  0  0  0  0  0  0  0  0  0  0  0
  -10.2332  -30.3974   26.2516 O   0  0  0  0  0  0  0  0  0  0  0  0
  -10.3429  -27.8410   25.6321 C   0  0  0  0  0  0  0  0  0  0  0  0
  -10.9962  -27.3342   24.4809 O   0  0  0  0  0  0  0  0  0  0  0  0
  -11.0528  -26.8199   26.7341 C   0  0  0  0  0  0  0  0  0  0  0  0
  -12.3478  -26.2803   26.6582 C   0  0  0  0  0  0  0  0  0  0  0  0
  -12.8296  -25.8980   27.8728 N   0  0  0  0  0  0  0  0  0  0  0  0
  -11.7727  -25.8810   28.6347 C   0  0  0  0  0  0  0  0  0  0  0  0
  -10.6686  -26.3528   27.9721 N   0  0  0  0  0  0  0  0  0  0  0  0
   -9.3993  -26.2802   28.6135 C   0  0  0  0  0  0  0  0  0  0  0  0
   -9.8355  -32.5071   23.6423 C   0  0  0  0  0  0  0  0  0  0  0  0
  -11.0750  -32.7660   24.2194 C   0  0  0  0  0  0  0  0  0  0  0  0
  -11.5068  -34.0908   24.4327 C   0  0  0  0  0  0  0  0  0  0  0  0
  -10.6962  -35.1847   24.0537 C   0  0  0  0  0  0  0  0  0  0  0  0
  -10.9799  -36.5310   24.2307 N   0  0  0  0  0  0  0  0  0  0  0  0
   -9.9942  -37.2551   23.7495 C   0  0  0  0  0  0  0  0  0  0  0  0
   -8.6863  -36.3999   23.0545 S   0  0  0  0  0  0  0  0  0  0  0  0
   -9.4786  -34.9190   23.4333 C   0  0  0  0  0  0  0  0  0  0  0  0
   -9.0507  -33.6052   23.2064 C   0  0  0  0  0  0  0  0  0  0  0  0
  -10.6322  -30.9303   21.5956 H   0  0  0  0  0  0  0  0  0  0  0  0
   -9.1092  -31.7393   21.2270 H   0  0  0  0  0  0  0  0  0  0  0  0
   -9.1409  -29.9882   21.4971 H   0  0  0  0  0  0  0  0  0  0  0  0
   -8.2009  -31.1491   23.4528 H   0  0  0  0  0  0  0  0  0  0  0  0
   -9.7724  -29.0500   23.4536 H   0  0  0  0  0  0  0  0  0  0  0  0
  -11.0428  -28.3476   26.2817 H   0  0  0  0  0  0  0  0  0  0  0  0
  -11.8853  -27.7232   24.5725 H   0  0  0  0  0  0  0  0  0  0  0  0
  -13.0107  -26.2911   25.8040 H   0  0  0  0  0  0  0  0  0  0  0  0
  -11.7345  -25.5201   29.6549 H   0  0  0  0  0  0  0  0  0  0  0  0
   -9.5050  -26.7641   29.5871 H   0  0  0  0  0  0  0  0  0  0  0  0
   -8.6478  -26.7663   28.0063 H   0  0  0  0  0  0  0  0  0  0  0  0
   -9.1490  -25.2281   28.7638 H   0  0  0  0  0  0  0  0  0  0  0  0
  -11.7128  -31.9445   24.5313 H   0  0  0  0  0  0  0  0  0  0  0  0
  -12.4615  -34.2834   24.9122 H   0  0  0  0  0  0  0  0  0  0  0  0
  -10.0064  -38.3365   23.7841 H   0  0  0  0  0  0  0  0  0  0  0  0
   -8.0941  -33.4306   22.7133 H   0  0  0  0  0  0  0  0  0  0  0  0
  1  2  1  0
  2  3  1  0
  3  4  1  0
  4  5  2  0
  4  6  1  0
  6  7  1  0
  6  8  1  0
  8  9  2  0
  9 10  1  0
 10 11  2  0
 11 12  1  0
 12 13  1  0
  2 14  1  0
 14 15  2  0
 15 16  1  0
 16 17  2  0
 17 18  1  0
 18 19  2  0
 19 20  1  0
 20 21  1  0
 21 22  2  0
 12  8  1  0
 22 14  1  0
 21 17  1  0
  1 23  1  0
  1 24  1  0
  1 25  1  0
  2 26  1  0
  3 27  1  0
  6 28  1  0
  7 29  1  0
  9 30  1  0
 11 31  1  0
 13 32  1  0
 13 33  1  0
 13 34  1  0
 15 35  1  0
 16 36  1  0
 19 37  1  0
 22 38  1  0
M  END
>  <Energy>  (255) 
172.97121834360337

>  <compound_id>  (255) 
12517

>  <target_id>  (255) 
1

>  <reference_id>  (255) 
115

>  <inspiration_ids>  (255) 
[115, 68]

>  <energy_score>  (255) 
45.2997122911118

>  <distance_score>  (255) 
3.3282193278264387

>  <path>  (255) 
/opt/xchem-fragalysis-2/maxwin/BulkDock/SCRATCH/511014/C12517-P115/C12517-P115.minimised.mol

>  <scratch_subdir>  (255) 
/opt/xchem-fragalysis-2/maxwin/BulkDock/SCRATCH/511014/C12517-P115

>  <fragmenstein_runtime>  (255) 
5.149888277053833

>  <fragmenstein_outcome>  (255) 
too moved

>  <fragmenstein_mode>  (255) 
expansion

>  <fragmenstein_error>  (255) 


$$$$
C12517-P68
     RDKit          3D

 38 40  0  0  0  0  0  0  0  0999 V2000
   -9.7572  -32.5098   22.0587 C   0  0  0  0  0  0  0  0  0  0  0  0
   -9.0311  -31.6347   23.4315 C   0  0  0  0  0  0  0  0  0  0  0  0
   -9.7948  -30.4557   23.4607 N   0  0  0  0  0  0  0  0  0  0  0  0
   -9.5400  -28.6025   24.4872 C   0  0  0  0  0  0  0  0  0  0  0  0
   -8.5436  -28.4019   25.0725 O   0  0  0  0  0  0  0  0  0  0  0  0
  -10.7679  -27.3447   24.7788 C   0  0  0  0  0  0  0  0  0  0  0  0
  -12.1788  -27.5931   24.8283 O   0  0  0  0  0  0  0  0  0  0  0  0
  -10.7169  -27.4471   26.2463 C   0  0  0  0  0  0  0  0  0  0  0  0
  -11.8003  -27.0808   26.9176 C   0  0  0  0  0  0  0  0  0  0  0  0
  -11.6461  -27.6518   28.2236 N   0  0  0  0  0  0  0  0  0  0  0  0
  -10.3787  -27.6082   28.3660 C   0  0  0  0  0  0  0  0  0  0  0  0
  -10.1056  -28.1127   27.2141 N   0  0  0  0  0  0  0  0  0  0  0  0
   -9.3422  -29.1945   27.5098 C   0  0  0  0  0  0  0  0  0  0  0  0
   -9.8800  -33.0920   24.1888 C   0  0  0  0  0  0  0  0  0  0  0  0
  -11.2813  -33.3277   24.1624 C   0  0  0  0  0  0  0  0  0  0  0  0
  -11.8306  -34.5906   24.4473 C   0  0  0  0  0  0  0  0  0  0  0  0
  -10.9907  -35.6893   24.6928 C   0  0  0  0  0  0  0  0  0  0  0  0
  -11.3968  -36.9969   24.9083 N   0  0  0  0  0  0  0  0  0  0  0  0
  -10.3399  -37.7671   25.0371 C   0  0  0  0  0  0  0  0  0  0  0  0
   -8.8275  -36.9897   24.9281 S   0  0  0  0  0  0  0  0  0  0  0  0
   -9.6185  -35.4745   24.7329 C   0  0  0  0  0  0  0  0  0  0  0  0
   -9.0548  -34.1941   24.5795 C   0  0  0  0  0  0  0  0  0  0  0  0
   -9.4186  -33.5494   21.9582 H   0  0  0  0  0  0  0  0  0  0  0  0
   -9.5694  -32.0428   21.0976 H   0  0  0  0  0  0  0  0  0  0  0  0
  -10.8522  -32.4551   22.0582 H   0  0  0  0  0  0  0  0  0  0  0  0
   -8.2553  -31.7470   24.1630 H   0  0  0  0  0  0  0  0  0  0  0  0
  -10.6766  -30.4606   22.9117 H   0  0  0  0  0  0  0  0  0  0  0  0
  -10.6590  -26.2726   25.0363 H   0  0  0  0  0  0  0  0  0  0  0  0
  -12.4124  -28.2573   25.5084 H   0  0  0  0  0  0  0  0  0  0  0  0
  -12.7216  -26.5597   26.6389 H   0  0  0  0  0  0  0  0  0  0  0  0
   -9.8167  -27.6180   29.2866 H   0  0  0  0  0  0  0  0  0  0  0  0
   -9.9105  -30.0958   27.4831 H   0  0  0  0  0  0  0  0  0  0  0  0
   -8.4713  -29.1866   26.9161 H   0  0  0  0  0  0  0  0  0  0  0  0
   -8.9316  -29.0502   28.5250 H   0  0  0  0  0  0  0  0  0  0  0  0
  -11.9935  -32.5840   23.8197 H   0  0  0  0  0  0  0  0  0  0  0  0
  -12.9040  -34.7482   24.3960 H   0  0  0  0  0  0  0  0  0  0  0  0
  -10.4161  -38.8343   25.2028 H   0  0  0  0  0  0  0  0  0  0  0  0
   -7.9824  -34.1025   24.7013 H   0  0  0  0  0  0  0  0  0  0  0  0
  1  2  1  0
  2  3  1  0
  3  4  1  0
  4  5  2  0
  4  6  1  0
  6  7  1  0
  6  8  1  0
  8  9  2  0
  9 10  1  0
 10 11  2  0
 11 12  1  0
 12 13  1  0
  2 14  1  0
 14 15  2  0
 15 16  1  0
 16 17  2  0
 17 18  1  0
 18 19  2  0
 19 20  1  0
 20 21  1  0
 21 22  2  0
 12  8  1  0
 22 14  1  0
 21 17  1  0
  1 23  1  0
  1 24  1  0
  1 25  1  0
  2 26  1  0
  3 27  1  0
  6 28  1  0
  7 29  1  0
  9 30  1  0
 11 31  1  0
 13 32  1  0
 13 33  1  0
 13 34  1  0
 15 35  1  0
 16 36  1  0
 19 37  1  0
 22 38  1  0
M  END
>  <Energy>  (256) 
550.70745625962923

>  <compound_id>  (256) 
12517

>  <target_id>  (256) 
1

>  <reference_id>  (256) 
68

>  <inspiration_ids>  (256) 
[115, 68]

>  <energy_score>  (256) 
423.0359502071384

>  <distance_score>  (256) 
3.5175589825673805

>  <path>  (256) 
/opt/xchem-fragalysis-2/maxwin/BulkDock/SCRATCH/511014/C12517-P68/C12517-P68.minimised.mol

>  <scratch_subdir>  (256) 
/opt/xchem-fragalysis-2/maxwin/BulkDock/SCRATCH/511014/C12517-P68

>  <fragmenstein_runtime>  (256) 
8.225626945495605

>  <fragmenstein_outcome>  (256) 
too moved

>  <fragmenstein_mode>  (256) 
expansion

>  <fragmenstein_error>  (256) 


$$$$
C12518-P115
     RDKit          3D

 31 33  0  0  0  0  0  0  0  0999 V2000
  -10.7715  -30.9795   26.6526 O   0  0  0  0  0  0  0  0  0  0  0  0
  -10.4935  -30.5821   25.5859 C   0  0  0  0  0  0  0  0  0  0  0  0
  -10.3377  -29.1151   25.0600 N   0  0  0  0  0  0  0  0  0  0  0  0
  -10.4069  -27.7008   25.8491 C   0  0  0  0  0  0  0  0  0  0  0  0
  -11.3668  -27.2590   27.0570 C   0  0  0  0  0  0  0  0  0  0  0  0
  -10.9384  -26.3851   28.2366 C   0  0  0  0  0  0  0  0  0  0  0  0
  -11.8118  -25.7083   29.0720 C   0  0  0  0  0  0  0  0  0  0  0  0
  -11.0874  -25.2679   30.1403 N   0  0  0  0  0  0  0  0  0  0  0  0
   -9.8104  -25.6846   29.9329 C   0  0  0  0  0  0  0  0  0  0  0  0
   -9.6817  -26.3255   28.7870 N   0  0  0  0  0  0  0  0  0  0  0  0
  -10.3693  -31.7406   24.5174 C   0  0  0  0  0  0  0  0  0  0  0  0
  -11.2418  -32.8400   24.6973 C   0  0  0  0  0  0  0  0  0  0  0  0
  -10.9586  -34.1438   24.2174 C   0  0  0  0  0  0  0  0  0  0  0  0
   -9.7868  -34.3802   23.4778 C   0  0  0  0  0  0  0  0  0  0  0  0
   -9.2872  -35.6246   23.0983 N   0  0  0  0  0  0  0  0  0  0  0  0
   -8.1943  -35.4573   22.3900 C   0  0  0  0  0  0  0  0  0  0  0  0
   -7.7381  -33.8337   22.0857 S   0  0  0  0  0  0  0  0  0  0  0  0
   -9.0196  -33.2661   23.1180 C   0  0  0  0  0  0  0  0  0  0  0  0
   -9.2929  -31.9436   23.6281 C   0  0  0  0  0  0  0  0  0  0  0  0
  -10.1690  -29.1293   24.0572 H   0  0  0  0  0  0  0  0  0  0  0  0
   -9.3776  -27.5286   26.1373 H   0  0  0  0  0  0  0  0  0  0  0  0
  -10.6379  -26.9907   25.0539 H   0  0  0  0  0  0  0  0  0  0  0  0
  -12.2144  -26.7256   26.6033 H   0  0  0  0  0  0  0  0  0  0  0  0
  -11.7635  -28.1498   27.5563 H   0  0  0  0  0  0  0  0  0  0  0  0
  -12.8735  -25.5546   28.9969 H   0  0  0  0  0  0  0  0  0  0  0  0
  -11.4297  -24.7483   30.9395 H   0  0  0  0  0  0  0  0  0  0  0  0
   -9.0284  -25.4818   30.6496 H   0  0  0  0  0  0  0  0  0  0  0  0
  -12.1039  -32.7202   25.3530 H   0  0  0  0  0  0  0  0  0  0  0  0
  -11.6005  -34.9763   24.4893 H   0  0  0  0  0  0  0  0  0  0  0  0
   -7.6275  -36.2867   21.9885 H   0  0  0  0  0  0  0  0  0  0  0  0
   -8.5740  -31.1475   23.4479 H   0  0  0  0  0  0  0  0  0  0  0  0
  1  2  2  0
  2  3  1  0
  3  4  1  0
  4  5  1  0
  5  6  1  0
  6  7  2  0
  7  8  1  0
  8  9  1  0
  9 10  2  0
  2 11  1  0
 11 12  2  0
 12 13  1  0
 13 14  2  0
 14 15  1  0
 15 16  2  0
 16 17  1  0
 17 18  1  0
 18 19  2  0
 10  6  1  0
 19 11  1  0
 18 14  1  0
  3 20  1  0
  4 21  1  0
  4 22  1  0
  5 23  1  0
  5 24  1  0
  7 25  1  0
  8 26  1  0
  9 27  1  0
 12 28  1  0
 13 29  1  0
 16 30  1  0
 19 31  1  0
M  END
>  <Energy>  (257) 
80.143190584850288

>  <compound_id>  (257) 
12518

>  <target_id>  (257) 
1

>  <reference_id>  (257) 
115

>  <inspiration_ids>  (257) 
[115, 68]

>  <energy_score>  (257) 
9.400410879586303

>  <distance_score>  (257) 
2.8742309835857274

>  <path>  (257) 
/opt/xchem-fragalysis-2/maxwin/BulkDock/SCRATCH/511014/C12518-P115/C12518-P115.minimised.mol

>  <scratch_subdir>  (257) 
/opt/xchem-fragalysis-2/maxwin/BulkDock/SCRATCH/511014/C12518-P115

>  <fragmenstein_runtime>  (257) 
2.985830545425415

>  <fragmenstein_outcome>  (257) 
too moved

>  <fragmenstein_mode>  (257) 
expansion

>  <fragmenstein_error>  (257) 


$$$$
C12518-P68
     RDKit          3D

 31 33  0  0  0  0  0  0  0  0999 V2000
  -12.8512  -32.8581   24.9508 O   0  0  0  0  0  0  0  0  0  0  0  0
  -12.3751  -32.3028   23.9885 C   0  0  0  0  0  0  0  0  0  0  0  0
  -12.0834  -30.7862   23.7369 N   0  0  0  0  0  0  0  0  0  0  0  0
  -12.2773  -29.0397   25.0858 C   0  0  0  0  0  0  0  0  0  0  0  0
  -10.8777  -27.9232   25.8728 C   0  0  0  0  0  0  0  0  0  0  0  0
  -10.9012  -26.4978   26.3674 C   0  0  0  0  0  0  0  0  0  0  0  0
  -10.7673  -25.2465   25.8485 C   0  0  0  0  0  0  0  0  0  0  0  0
  -10.7864  -24.2976   26.8233 N   0  0  0  0  0  0  0  0  0  0  0  0
   -9.9156  -24.9227   27.6321 C   0  0  0  0  0  0  0  0  0  0  0  0
  -10.1219  -26.2642   27.4940 N   0  0  0  0  0  0  0  0  0  0  0  0
  -11.9015  -33.2171   22.9289 C   0  0  0  0  0  0  0  0  0  0  0  0
  -12.2890  -33.2087   21.6044 C   0  0  0  0  0  0  0  0  0  0  0  0
  -11.7385  -34.1696   20.7355 C   0  0  0  0  0  0  0  0  0  0  0  0
  -10.7871  -35.1196   21.1898 C   0  0  0  0  0  0  0  0  0  0  0  0
  -10.1850  -36.1185   20.4401 N   0  0  0  0  0  0  0  0  0  0  0  0
   -9.3428  -36.7931   21.1917 C   0  0  0  0  0  0  0  0  0  0  0  0
   -9.1998  -36.2824   22.8161 S   0  0  0  0  0  0  0  0  0  0  0  0
  -10.3872  -35.0708   22.5226 C   0  0  0  0  0  0  0  0  0  0  0  0
  -10.9338  -34.1348   23.4036 C   0  0  0  0  0  0  0  0  0  0  0  0
  -11.7500  -30.6580   22.7605 H   0  0  0  0  0  0  0  0  0  0  0  0
  -12.7801  -29.6983   25.9337 H   0  0  0  0  0  0  0  0  0  0  0  0
  -12.7023  -27.9844   24.8701 H   0  0  0  0  0  0  0  0  0  0  0  0
  -10.5369  -28.4693   26.7765 H   0  0  0  0  0  0  0  0  0  0  0  0
  -10.0609  -27.8834   25.1608 H   0  0  0  0  0  0  0  0  0  0  0  0
  -10.0486  -24.8969   25.1584 H   0  0  0  0  0  0  0  0  0  0  0  0
  -10.9598  -23.3065   26.7677 H   0  0  0  0  0  0  0  0  0  0  0  0
   -9.3709  -24.4011   28.3942 H   0  0  0  0  0  0  0  0  0  0  0  0
  -13.0243  -32.5002   21.2360 H   0  0  0  0  0  0  0  0  0  0  0  0
  -12.0408  -34.1953   19.6911 H   0  0  0  0  0  0  0  0  0  0  0  0
   -8.7630  -37.6218   20.8066 H   0  0  0  0  0  0  0  0  0  0  0  0
  -10.6189  -34.1156   24.4462 H   0  0  0  0  0  0  0  0  0  0  0  0
  1  2  2  0
  2  3  1  0
  3  4  1  0
  4  5  1  0
  5  6  1  0
  6  7  2  0
  7  8  1  0
  8  9  1  0
  9 10  2  0
  2 11  1  0
 11 12  2  0
 12 13  1  0
 13 14  2  0
 14 15  1  0
 15 16  2  0
 16 17  1  0
 17 18  1  0
 18 19  2  0
 10  6  1  0
 19 11  1  0
 18 14  1  0
  3 20  1  0
  4 21  1  0
  4 22  1  0
  5 23  1  0
  5 24  1  0
  7 25  1  0
  8 26  1  0
  9 27  1  0
 12 28  1  0
 13 29  1  0
 16 30  1  0
 19 31  1  0
M  END
>  <Energy>  (258) 
367.29868976306005

>  <compound_id>  (258) 
12518

>  <target_id>  (258) 
1

>  <reference_id>  (258) 
68

>  <inspiration_ids>  (258) 
[115, 68]

>  <energy_score>  (258) 
264.831077566864

>  <distance_score>  (258) 
3.60794500431131

>  <path>  (258) 
/opt/xchem-fragalysis-2/maxwin/BulkDock/SCRATCH/511014/C12518-P68/C12518-P68.minimised.mol

>  <scratch_subdir>  (258) 
/opt/xchem-fragalysis-2/maxwin/BulkDock/SCRATCH/511014/C12518-P68

>  <fragmenstein_runtime>  (258) 
8.901679277420044

>  <fragmenstein_outcome>  (258) 
too moved

>  <fragmenstein_mode>  (258) 
expansion

>  <fragmenstein_error>  (258) 


$$$$
C12519-P115
     RDKit          3D

 41 43  0  0  0  0  0  0  0  0999 V2000
  -11.0896  -24.1868   32.4059 C   0  0  0  0  0  0  0  0  0  0  0  0
  -10.8365  -25.0837   31.3067 N   0  0  0  0  0  0  0  0  0  0  0  0
  -10.1317  -26.2448   31.3908 C   0  0  0  0  0  0  0  0  0  0  0  0
  -10.0419  -26.8286   30.2174 N   0  0  0  0  0  0  0  0  0  0  0  0
  -10.6473  -25.9834   29.3142 C   0  0  0  0  0  0  0  0  0  0  0  0
  -10.4986  -26.2107   27.8303 C   0  0  0  0  0  0  0  0  0  0  0  0
  -11.3911  -27.2940   27.1843 C   0  0  0  0  0  0  0  0  0  0  0  0
  -12.6612  -26.6565   26.9208 O   0  0  0  0  0  0  0  0  0  0  0  0
  -10.7147  -27.8792   25.7467 C   0  0  0  0  0  0  0  0  0  0  0  0
  -10.5277  -27.0458   24.9154 O   0  0  0  0  0  0  0  0  0  0  0  0
  -10.5202  -29.5217   25.6753 N   0  0  0  0  0  0  0  0  0  0  0  0
   -9.9533  -30.4032   24.5603 C   0  0  0  0  0  0  0  0  0  0  0  0
  -10.8575  -31.6593   24.0809 C   0  0  0  0  0  0  0  0  0  0  0  0
  -10.2676  -33.0660   23.8513 C   0  0  0  0  0  0  0  0  0  0  0  0
  -10.8665  -34.1743   24.4772 C   0  0  0  0  0  0  0  0  0  0  0  0
  -10.3202  -35.4680   24.3934 C   0  0  0  0  0  0  0  0  0  0  0  0
   -9.1803  -35.6988   23.6034 C   0  0  0  0  0  0  0  0  0  0  0  0
   -8.4951  -36.9026   23.4892 N   0  0  0  0  0  0  0  0  0  0  0  0
   -7.5109  -36.7592   22.6320 C   0  0  0  0  0  0  0  0  0  0  0  0
   -7.3488  -35.2154   21.9114 S   0  0  0  0  0  0  0  0  0  0  0  0
   -8.6660  -34.6289   22.8658 C   0  0  0  0  0  0  0  0  0  0  0  0
   -9.1915  -33.3118   22.9781 C   0  0  0  0  0  0  0  0  0  0  0  0
  -11.1870  -24.9083   29.9950 C   0  0  0  0  0  0  0  0  0  0  0  0
  -10.1297  -23.8127   32.7712 H   0  0  0  0  0  0  0  0  0  0  0  0
  -11.7053  -23.3514   32.0644 H   0  0  0  0  0  0  0  0  0  0  0  0
  -11.6011  -24.7395   33.1970 H   0  0  0  0  0  0  0  0  0  0  0  0
   -9.7115  -26.6173   32.3159 H   0  0  0  0  0  0  0  0  0  0  0  0
   -9.4503  -26.4779   27.6791 H   0  0  0  0  0  0  0  0  0  0  0  0
  -10.6558  -25.2525   27.3179 H   0  0  0  0  0  0  0  0  0  0  0  0
  -11.6210  -28.1127   27.8673 H   0  0  0  0  0  0  0  0  0  0  0  0
  -12.9729  -27.1377   26.1233 H   0  0  0  0  0  0  0  0  0  0  0  0
  -10.6908  -29.9278   26.5895 H   0  0  0  0  0  0  0  0  0  0  0  0
   -9.0733  -30.8334   25.0191 H   0  0  0  0  0  0  0  0  0  0  0  0
   -9.6205  -29.7990   23.7161 H   0  0  0  0  0  0  0  0  0  0  0  0
  -11.6730  -31.7493   24.8099 H   0  0  0  0  0  0  0  0  0  0  0  0
  -11.3295  -31.4222   23.1232 H   0  0  0  0  0  0  0  0  0  0  0  0
  -11.7459  -34.0345   25.1038 H   0  0  0  0  0  0  0  0  0  0  0  0
  -10.7635  -36.2894   24.9474 H   0  0  0  0  0  0  0  0  0  0  0  0
   -6.8425  -37.5709   22.3772 H   0  0  0  0  0  0  0  0  0  0  0  0
   -8.7289  -32.4956   22.4254 H   0  0  0  0  0  0  0  0  0  0  0  0
  -11.7102  -24.0289   29.6432 H   0  0  0  0  0  0  0  0  0  0  0  0
  1  2  1  0
  2  3  1  0
  3  4  2  0
  4  5  1  0
  5  6  1  0
  6  7  1  0
  7  8  1  0
  7  9  1  0
  9 10  2  0
  9 11  1  0
 11 12  1  0
 12 13  1  0
 13 14  1  0
 14 15  2  0
 15 16  1  0
 16 17  2  0
 17 18  1  0
 18 19  2  0
 19 20  1  0
 20 21  1  0
 21 22  2  0
  5 23  2  0
 23  2  1  0
 22 14  1  0
 21 17  1  0
  1 24  1  0
  1 25  1  0
  1 26  1  0
  3 27  1  0
  6 28  1  0
  6 29  1  0
  7 30  1  0
  8 31  1  0
 11 32  1  0
 12 33  1  0
 12 34  1  0
 13 35  1  0
 13 36  1  0
 15 37  1  0
 16 38  1  0
 19 39  1  0
 22 40  1  0
 23 41  1  0
M  END
>  <Energy>  (259) 
104.94754880350779

>  <compound_id>  (259) 
12519

>  <target_id>  (259) 
1

>  <reference_id>  (259) 
115

>  <inspiration_ids>  (259) 
[115, 68]

>  <energy_score>  (259) 
-20.07744848356424

>  <distance_score>  (259) 
1.6588400992553327

>  <path>  (259) 
/opt/xchem-fragalysis-2/maxwin/BulkDock/SCRATCH/511014/C12519-P115/C12519-P115.minimised.mol

>  <scratch_subdir>  (259) 
/opt/xchem-fragalysis-2/maxwin/BulkDock/SCRATCH/511014/C12519-P115

>  <fragmenstein_runtime>  (259) 
2.7514138221740723

>  <fragmenstein_outcome>  (259) 
too moved

>  <fragmenstein_mode>  (259) 
expansion

>  <fragmenstein_error>  (259) 


$$$$
C12519-P68
     RDKit          3D

 41 43  0  0  0  0  0  0  0  0999 V2000
  -13.5917  -24.8449   25.5383 C   0  0  0  0  0  0  0  0  0  0  0  0
  -14.6319  -25.8132   25.3746 N   0  0  0  0  0  0  0  0  0  0  0  0
  -14.3375  -27.0983   25.6152 C   0  0  0  0  0  0  0  0  0  0  0  0
  -15.3490  -27.8933   25.4020 N   0  0  0  0  0  0  0  0  0  0  0  0
  -16.3447  -27.0933   24.9347 C   0  0  0  0  0  0  0  0  0  0  0  0
  -17.5664  -27.7232   24.3587 C   0  0  0  0  0  0  0  0  0  0  0  0
  -18.0700  -29.0194   25.0177 C   0  0  0  0  0  0  0  0  0  0  0  0
  -19.4984  -29.0707   24.7663 O   0  0  0  0  0  0  0  0  0  0  0  0
  -17.5013  -30.4681   24.6554 C   0  0  0  0  0  0  0  0  0  0  0  0
  -18.2211  -31.1885   24.0178 O   0  0  0  0  0  0  0  0  0  0  0  0
  -16.2191  -30.7140   25.2493 N   0  0  0  0  0  0  0  0  0  0  0  0
  -15.4250  -31.9426   25.3532 C   0  0  0  0  0  0  0  0  0  0  0  0
  -15.1861  -32.7892   24.0842 C   0  0  0  0  0  0  0  0  0  0  0  0
  -13.9834  -33.7275   24.1774 C   0  0  0  0  0  0  0  0  0  0  0  0
  -13.9935  -34.7974   25.0771 C   0  0  0  0  0  0  0  0  0  0  0  0
  -12.9167  -35.6940   25.1542 C   0  0  0  0  0  0  0  0  0  0  0  0
  -11.7862  -35.5223   24.3320 C   0  0  0  0  0  0  0  0  0  0  0  0
  -10.6506  -36.3172   24.3349 N   0  0  0  0  0  0  0  0  0  0  0  0
   -9.8083  -35.8784   23.4278 C   0  0  0  0  0  0  0  0  0  0  0  0
  -10.3171  -34.5184   22.5182 S   0  0  0  0  0  0  0  0  0  0  0  0
  -11.7846  -34.4633   23.4228 C   0  0  0  0  0  0  0  0  0  0  0  0
  -12.8672  -33.5599   23.3299 C   0  0  0  0  0  0  0  0  0  0  0  0
  -15.9500  -25.7686   25.0276 C   0  0  0  0  0  0  0  0  0  0  0  0
  -12.6823  -25.4163   25.4285 H   0  0  0  0  0  0  0  0  0  0  0  0
  -13.7079  -23.9638   24.9162 H   0  0  0  0  0  0  0  0  0  0  0  0
  -13.3969  -24.5780   26.5566 H   0  0  0  0  0  0  0  0  0  0  0  0
  -13.3339  -27.3670   25.8945 H   0  0  0  0  0  0  0  0  0  0  0  0
  -17.4085  -27.9040   23.2886 H   0  0  0  0  0  0  0  0  0  0  0  0
  -18.3696  -26.9743   24.4034 H   0  0  0  0  0  0  0  0  0  0  0  0
  -17.9901  -28.9349   26.1007 H   0  0  0  0  0  0  0  0  0  0  0  0
  -19.6489  -29.9033   24.2689 H   0  0  0  0  0  0  0  0  0  0  0  0
  -15.8642  -29.8427   25.6449 H   0  0  0  0  0  0  0  0  0  0  0  0
  -15.9371  -32.5650   26.0969 H   0  0  0  0  0  0  0  0  0  0  0  0
  -14.4726  -31.6467   25.8071 H   0  0  0  0  0  0  0  0  0  0  0  0
  -16.0810  -33.3907   23.8779 H   0  0  0  0  0  0  0  0  0  0  0  0
  -15.0663  -32.1573   23.2067 H   0  0  0  0  0  0  0  0  0  0  0  0
  -14.8564  -34.9643   25.7204 H   0  0  0  0  0  0  0  0  0  0  0  0
  -12.9468  -36.5305   25.8455 H   0  0  0  0  0  0  0  0  0  0  0  0
   -8.8486  -36.3493   23.2570 H   0  0  0  0  0  0  0  0  0  0  0  0
  -12.8372  -32.7558   22.5987 H   0  0  0  0  0  0  0  0  0  0  0  0
  -16.4670  -24.8462   24.7961 H   0  0  0  0  0  0  0  0  0  0  0  0
  1  2  1  0
  2  3  1  0
  3  4  2  0
  4  5  1  0
  5  6  1  0
  6  7  1  0
  7  8  1  0
  7  9  1  0
  9 10  2  0
  9 11  1  0
 11 12  1  0
 12 13  1  0
 13 14  1  0
 14 15  2  0
 15 16  1  0
 16 17  2  0
 17 18  1  0
 18 19  2  0
 19 20  1  0
 20 21  1  0
 21 22  2  0
  5 23  2  0
 23  2  1  0
 22 14  1  0
 21 17  1  0
  1 24  1  0
  1 25  1  0
  1 26  1  0
  3 27  1  0
  6 28  1  0
  6 29  1  0
  7 30  1  0
  8 31  1  0
 11 32  1  0
 12 33  1  0
 12 34  1  0
 13 35  1  0
 13 36  1  0
 15 37  1  0
 16 38  1  0
 19 39  1  0
 22 40  1  0
 23 41  1  0
M  END
>  <Energy>  (260) 
68.694641689291259

>  <compound_id>  (260) 
12519

>  <target_id>  (260) 
1

>  <reference_id>  (260) 
68

>  <inspiration_ids>  (260) 
[115, 68]

>  <energy_score>  (260) 
-55.08639882357977

>  <distance_score>  (260) 
5.521548951586787

>  <path>  (260) 
/opt/xchem-fragalysis-2/maxwin/BulkDock/SCRATCH/511014/C12519-P68/C12519-P68.minimised.mol

>  <scratch_subdir>  (260) 
/opt/xchem-fragalysis-2/maxwin/BulkDock/SCRATCH/511014/C12519-P68

>  <fragmenstein_runtime>  (260) 
11.1659574508667

>  <fragmenstein_outcome>  (260) 
too moved

>  <fragmenstein_mode>  (260) 
expansion

>  <fragmenstein_error>  (260) 


$$$$
C12520-P115
     RDKit          3D

 37 39  0  0  0  0  0  0  0  0999 V2000
  -11.2032  -26.9913   25.1151 C   0  0  0  0  0  0  0  0  0  0  0  0
  -10.7855  -27.9885   26.0930 N   0  0  0  0  0  0  0  0  0  0  0  0
  -10.5771  -26.6734   26.9782 C   0  0  0  0  0  0  0  0  0  0  0  0
  -11.2397  -26.3978   28.3020 C   0  0  0  0  0  0  0  0  0  0  0  0
  -11.6394  -25.1246   28.6769 C   0  0  0  0  0  0  0  0  0  0  0  0
  -11.5410  -25.0764   30.0366 N   0  0  0  0  0  0  0  0  0  0  0  0
  -11.0978  -26.2949   30.4423 C   0  0  0  0  0  0  0  0  0  0  0  0
  -11.0205  -27.1363   29.4379 N   0  0  0  0  0  0  0  0  0  0  0  0
   -9.7567  -28.9582   25.4806 C   0  0  0  0  0  0  0  0  0  0  0  0
   -8.5537  -28.8712   25.4700 O   0  0  0  0  0  0  0  0  0  0  0  0
  -10.1966  -30.3240   24.8137 C   0  0  0  0  0  0  0  0  0  0  0  0
  -11.2254  -31.4415   25.0005 C   0  0  0  0  0  0  0  0  0  0  0  0
  -10.8844  -32.7978   24.3476 C   0  0  0  0  0  0  0  0  0  0  0  0
  -11.6728  -33.9102   24.6774 C   0  0  0  0  0  0  0  0  0  0  0  0
  -11.3343  -35.2038   24.2508 C   0  0  0  0  0  0  0  0  0  0  0  0
  -10.1942  -35.4066   23.4504 C   0  0  0  0  0  0  0  0  0  0  0  0
   -9.7130  -36.6305   23.0066 N   0  0  0  0  0  0  0  0  0  0  0  0
   -8.6361  -36.4359   22.2800 C   0  0  0  0  0  0  0  0  0  0  0  0
   -8.1445  -34.8124   22.0627 S   0  0  0  0  0  0  0  0  0  0  0  0
   -9.4552  -34.2910   23.0573 C   0  0  0  0  0  0  0  0  0  0  0  0
   -9.7903  -32.9862   23.4777 C   0  0  0  0  0  0  0  0  0  0  0  0
  -10.4111  -26.3317   24.7942 H   0  0  0  0  0  0  0  0  0  0  0  0
  -12.1042  -26.4242   25.4139 H   0  0  0  0  0  0  0  0  0  0  0  0
  -11.5526  -27.5172   24.2539 H   0  0  0  0  0  0  0  0  0  0  0  0
   -9.5225  -26.7715   27.2699 H   0  0  0  0  0  0  0  0  0  0  0  0
  -10.5643  -25.6748   26.4991 H   0  0  0  0  0  0  0  0  0  0  0  0
  -11.8003  -24.2246   28.0982 H   0  0  0  0  0  0  0  0  0  0  0  0
  -11.6859  -24.2674   30.6268 H   0  0  0  0  0  0  0  0  0  0  0  0
  -10.8357  -26.4952   31.4704 H   0  0  0  0  0  0  0  0  0  0  0  0
   -9.9728  -30.1911   23.7477 H   0  0  0  0  0  0  0  0  0  0  0  0
   -9.3160  -30.9034   25.1351 H   0  0  0  0  0  0  0  0  0  0  0  0
  -12.1840  -31.1935   24.5643 H   0  0  0  0  0  0  0  0  0  0  0  0
  -11.3817  -31.5858   26.0729 H   0  0  0  0  0  0  0  0  0  0  0  0
  -12.5409  -33.7903   25.3228 H   0  0  0  0  0  0  0  0  0  0  0  0
  -11.9310  -36.0579   24.5549 H   0  0  0  0  0  0  0  0  0  0  0  0
   -8.0878  -37.2533   21.8307 H   0  0  0  0  0  0  0  0  0  0  0  0
   -9.1527  -32.1601   23.1723 H   0  0  0  0  0  0  0  0  0  0  0  0
  1  2  1  0
  2  3  1  0
  3  4  1  0
  4  5  2  0
  5  6  1  0
  6  7  1  0
  7  8  2  0
  2  9  1  0
  9 10  2  0
  9 11  1  0
 11 12  1  0
 12 13  1  0
 13 14  2  0
 14 15  1  0
 15 16  2  0
 16 17  1  0
 17 18  2  0
 18 19  1  0
 19 20  1  0
 20 21  2  0
  8  4  1  0
 21 13  1  0
 20 16  1  0
  1 22  1  0
  1 23  1  0
  1 24  1  0
  3 25  1  0
  3 26  1  0
  5 27  1  0
  6 28  1  0
  7 29  1  0
 11 30  1  0
 11 31  1  0
 12 32  1  0
 12 33  1  0
 14 34  1  0
 15 35  1  0
 18 36  1  0
 21 37  1  0
M  END
>  <Energy>  (261) 
159.08231076525453

>  <compound_id>  (261) 
12520

>  <target_id>  (261) 
1

>  <reference_id>  (261) 
115

>  <inspiration_ids>  (261) 
[115, 68]

>  <energy_score>  (261) 
63.65704931477762

>  <distance_score>  (261) 
2.4792611351598195

>  <path>  (261) 
/opt/xchem-fragalysis-2/maxwin/BulkDock/SCRATCH/511014/C12520-P115/C12520-P115.minimised.mol

>  <scratch_subdir>  (261) 
/opt/xchem-fragalysis-2/maxwin/BulkDock/SCRATCH/511014/C12520-P115

>  <fragmenstein_runtime>  (261) 
2.4429469108581543

>  <fragmenstein_outcome>  (261) 
too moved

>  <fragmenstein_mode>  (261) 
expansion

>  <fragmenstein_error>  (261) 


$$$$
C12520-P68
     RDKit          3D

 37 39  0  0  0  0  0  0  0  0999 V2000
  -10.7749  -26.8767   25.0507 C   0  0  0  0  0  0  0  0  0  0  0  0
   -9.9704  -28.3679   24.8684 N   0  0  0  0  0  0  0  0  0  0  0  0
   -9.8693  -27.8724   26.1839 C   0  0  0  0  0  0  0  0  0  0  0  0
   -9.9950  -28.2367   27.6397 C   0  0  0  0  0  0  0  0  0  0  0  0
  -10.1099  -27.3600   28.6295 C   0  0  0  0  0  0  0  0  0  0  0  0
   -9.4021  -27.8399   29.7865 N   0  0  0  0  0  0  0  0  0  0  0  0
   -8.6453  -28.8089   29.2552 C   0  0  0  0  0  0  0  0  0  0  0  0
   -9.2406  -29.1846   28.1349 N   0  0  0  0  0  0  0  0  0  0  0  0
   -8.5714  -28.9607   23.5262 C   0  0  0  0  0  0  0  0  0  0  0  0
   -7.3601  -28.9099   23.5691 O   0  0  0  0  0  0  0  0  0  0  0  0
   -9.6413  -29.9420   21.9613 C   0  0  0  0  0  0  0  0  0  0  0  0
  -10.6997  -31.3993   22.0973 C   0  0  0  0  0  0  0  0  0  0  0  0
  -10.3803  -32.8775   22.3283 C   0  0  0  0  0  0  0  0  0  0  0  0
  -10.0927  -33.3745   23.5963 C   0  0  0  0  0  0  0  0  0  0  0  0
   -9.8359  -34.7266   23.8728 C   0  0  0  0  0  0  0  0  0  0  0  0
   -9.9024  -35.6574   22.8331 C   0  0  0  0  0  0  0  0  0  0  0  0
   -9.6299  -37.0097   22.9366 N   0  0  0  0  0  0  0  0  0  0  0  0
   -9.8077  -37.5766   21.7675 C   0  0  0  0  0  0  0  0  0  0  0  0
  -10.3526  -36.5580   20.5042 S   0  0  0  0  0  0  0  0  0  0  0  0
  -10.2894  -35.2031   21.5721 C   0  0  0  0  0  0  0  0  0  0  0  0
  -10.5626  -33.8352   21.3158 C   0  0  0  0  0  0  0  0  0  0  0  0
  -11.7603  -27.3584   25.1019 H   0  0  0  0  0  0  0  0  0  0  0  0
  -11.3258  -26.5064   25.9933 H   0  0  0  0  0  0  0  0  0  0  0  0
  -10.1632  -26.0113   25.4321 H   0  0  0  0  0  0  0  0  0  0  0  0
  -10.9402  -28.1254   26.4376 H   0  0  0  0  0  0  0  0  0  0  0  0
   -9.3545  -28.8011   26.3172 H   0  0  0  0  0  0  0  0  0  0  0  0
  -10.0475  -26.2915   28.4589 H   0  0  0  0  0  0  0  0  0  0  0  0
   -9.1271  -27.2602   30.5598 H   0  0  0  0  0  0  0  0  0  0  0  0
   -7.7797  -29.2443   29.6992 H   0  0  0  0  0  0  0  0  0  0  0  0
  -10.4735  -29.3518   21.5215 H   0  0  0  0  0  0  0  0  0  0  0  0
   -9.2072  -30.4006   20.9949 H   0  0  0  0  0  0  0  0  0  0  0  0
  -11.1346  -31.3850   21.0816 H   0  0  0  0  0  0  0  0  0  0  0  0
  -11.5914  -31.2231   22.6884 H   0  0  0  0  0  0  0  0  0  0  0  0
  -10.0235  -32.7037   24.4263 H   0  0  0  0  0  0  0  0  0  0  0  0
   -9.5623  -35.0432   24.8748 H   0  0  0  0  0  0  0  0  0  0  0  0
   -9.6383  -38.6336   21.6095 H   0  0  0  0  0  0  0  0  0  0  0  0
  -10.9014  -33.5404   20.3264 H   0  0  0  0  0  0  0  0  0  0  0  0
  1  2  1  0
  2  3  1  0
  3  4  1  0
  4  5  2  0
  5  6  1  0
  6  7  1  0
  7  8  2  0
  2  9  1  0
  9 10  2  0
  9 11  1  0
 11 12  1  0
 12 13  1  0
 13 14  2  0
 14 15  1  0
 15 16  2  0
 16 17  1  0
 17 18  2  0
 18 19  1  0
 19 20  1  0
 20 21  2  0
  8  4  1  0
 21 13  1  0
 20 16  1  0
  1 22  1  0
  1 23  1  0
  1 24  1  0
  3 25  1  0
  3 26  1  0
  5 27  1  0
  6 28  1  0
  7 29  1  0
 11 30  1  0
 11 31  1  0
 12 32  1  0
 12 33  1  0
 14 34  1  0
 15 35  1  0
 18 36  1  0
 21 37  1  0
M  END
>  <Energy>  (262) 
642.60965519581055

>  <compound_id>  (262) 
12520

>  <target_id>  (262) 
1

>  <reference_id>  (262) 
68

>  <inspiration_ids>  (262) 
[115, 68]

>  <energy_score>  (262) 
547.1843937453381

>  <distance_score>  (262) 
2.890370825556936

>  <path>  (262) 
/opt/xchem-fragalysis-2/maxwin/BulkDock/SCRATCH/511014/C12520-P68/C12520-P68.minimised.mol

>  <scratch_subdir>  (262) 
/opt/xchem-fragalysis-2/maxwin/BulkDock/SCRATCH/511014/C12520-P68

>  <fragmenstein_runtime>  (262) 
8.235531330108643

>  <fragmenstein_outcome>  (262) 
too moved

>  <fragmenstein_mode>  (262) 
expansion

>  <fragmenstein_error>  (262) 


$$$$
C12521-P115
     RDKit          3D

 34 37  0  0  0  0  0  0  0  0999 V2000
  -14.8842  -26.6039   28.8278 O   0  0  0  0  0  0  0  0  0  0  0  0
  -13.7492  -27.0229   29.0081 C   0  0  0  0  0  0  0  0  0  0  0  0
  -12.6826  -26.1988   29.1302 O   0  0  0  0  0  0  0  0  0  0  0  0
  -13.4361  -28.4296   29.1048 C   0  0  0  0  0  0  0  0  0  0  0  0
  -12.4954  -29.0514   28.3401 C   0  0  0  0  0  0  0  0  0  0  0  0
  -12.9245  -30.3755   28.2184 N   0  0  0  0  0  0  0  0  0  0  0  0
  -12.6995  -31.2913   27.0699 C   0  0  0  0  0  0  0  0  0  0  0  0
  -11.5085  -31.2043   26.3085 C   0  0  0  0  0  0  0  0  0  0  0  0
  -11.2265  -32.0064   25.1774 C   0  0  0  0  0  0  0  0  0  0  0  0
  -12.0070  -33.1203   24.8720 C   0  0  0  0  0  0  0  0  0  0  0  0
  -11.2949  -34.3078   24.2777 C   0  0  0  0  0  0  0  0  0  0  0  0
  -11.2898  -35.5043   25.0172 C   0  0  0  0  0  0  0  0  0  0  0  0
  -10.3474  -36.5228   24.8000 C   0  0  0  0  0  0  0  0  0  0  0  0
   -9.3628  -36.3721   23.8104 C   0  0  0  0  0  0  0  0  0  0  0  0
   -8.3156  -37.2512   23.5702 N   0  0  0  0  0  0  0  0  0  0  0  0
   -7.5913  -36.7968   22.5739 C   0  0  0  0  0  0  0  0  0  0  0  0
   -8.1104  -35.3266   21.8658 S   0  0  0  0  0  0  0  0  0  0  0  0
   -9.4067  -35.2312   23.0062 C   0  0  0  0  0  0  0  0  0  0  0  0
  -10.3694  -34.2049   23.2094 C   0  0  0  0  0  0  0  0  0  0  0  0
  -13.2527  -33.1795   25.5462 C   0  0  0  0  0  0  0  0  0  0  0  0
  -13.6046  -32.2751   26.6309 C   0  0  0  0  0  0  0  0  0  0  0  0
  -13.7595  -30.5204   29.3027 C   0  0  0  0  0  0  0  0  0  0  0  0
  -14.0690  -29.3661   29.8611 N   0  0  0  0  0  0  0  0  0  0  0  0
  -11.8361  -26.6576   29.2935 H   0  0  0  0  0  0  0  0  0  0  0  0
  -11.7823  -28.6076   27.6668 H   0  0  0  0  0  0  0  0  0  0  0  0
  -10.7112  -30.5253   26.5884 H   0  0  0  0  0  0  0  0  0  0  0  0
  -10.2536  -31.8606   24.7020 H   0  0  0  0  0  0  0  0  0  0  0  0
  -11.9596  -35.6238   25.8688 H   0  0  0  0  0  0  0  0  0  0  0  0
  -10.3372  -37.4041   25.4339 H   0  0  0  0  0  0  0  0  0  0  0  0
   -6.7177  -37.3187   22.2060 H   0  0  0  0  0  0  0  0  0  0  0  0
  -10.3105  -33.2947   22.6152 H   0  0  0  0  0  0  0  0  0  0  0  0
  -13.9262  -34.0132   25.3457 H   0  0  0  0  0  0  0  0  0  0  0  0
  -14.5613  -32.4198   27.1278 H   0  0  0  0  0  0  0  0  0  0  0  0
  -14.1614  -31.4815   29.5943 H   0  0  0  0  0  0  0  0  0  0  0  0
  1  2  2  0
  2  3  1  0
  2  4  1  0
  4  5  2  0
  5  6  1  0
  6  7  1  0
  7  8  2  0
  8  9  1  0
  9 10  2  0
 10 11  1  0
 11 12  2  0
 12 13  1  0
 13 14  2  0
 14 15  1  0
 15 16  2  0
 16 17  1  0
 17 18  1  0
 18 19  2  0
 10 20  1  0
 20 21  2  0
  6 22  1  0
 22 23  2  0
 23  4  1  0
 21  7  1  0
 19 11  1  0
 18 14  1  0
  3 24  1  0
  5 25  1  0
  8 26  1  0
  9 27  1  0
 12 28  1  0
 13 29  1  0
 16 30  1  0
 19 31  1  0
 20 32  1  0
 21 33  1  0
 22 34  1  0
M  END
>  <Energy>  (263) 
120.12653190846089

>  <compound_id>  (263) 
12521

>  <target_id>  (263) 
1

>  <reference_id>  (263) 
115

>  <inspiration_ids>  (263) 
[115, 68]

>  <energy_score>  (263) 
-13.857915680103815

>  <distance_score>  (263) 
3.4949516170705763

>  <path>  (263) 
/opt/xchem-fragalysis-2/maxwin/BulkDock/SCRATCH/511014/C12521-P115/C12521-P115.minimised.mol

>  <scratch_subdir>  (263) 
/opt/xchem-fragalysis-2/maxwin/BulkDock/SCRATCH/511014/C12521-P115

>  <fragmenstein_runtime>  (263) 
2.5870211124420166

>  <fragmenstein_outcome>  (263) 
too moved

>  <fragmenstein_mode>  (263) 
expansion

>  <fragmenstein_error>  (263) 


$$$$
C12521-P68
     RDKit          3D

 34 37  0  0  0  0  0  0  0  0999 V2000
  -11.8714  -23.7894   26.4312 O   0  0  0  0  0  0  0  0  0  0  0  0
  -12.6527  -24.6519   26.0579 C   0  0  0  0  0  0  0  0  0  0  0  0
  -13.8351  -24.2924   25.5187 O   0  0  0  0  0  0  0  0  0  0  0  0
  -12.4174  -26.0892   26.0299 C   0  0  0  0  0  0  0  0  0  0  0  0
  -13.2885  -27.1324   25.7448 C   0  0  0  0  0  0  0  0  0  0  0  0
  -12.4855  -28.3785   25.8000 N   0  0  0  0  0  0  0  0  0  0  0  0
  -13.2372  -30.1305   26.1098 C   0  0  0  0  0  0  0  0  0  0  0  0
  -12.5727  -31.3446   26.2112 C   0  0  0  0  0  0  0  0  0  0  0  0
  -13.0451  -32.6076   25.8350 C   0  0  0  0  0  0  0  0  0  0  0  0
  -14.3198  -32.8344   25.3807 C   0  0  0  0  0  0  0  0  0  0  0  0
  -14.4145  -34.1278   24.6734 C   0  0  0  0  0  0  0  0  0  0  0  0
  -14.6498  -35.2974   25.4040 C   0  0  0  0  0  0  0  0  0  0  0  0
  -14.0658  -36.5185   25.0198 C   0  0  0  0  0  0  0  0  0  0  0  0
  -13.1968  -36.5764   23.9090 C   0  0  0  0  0  0  0  0  0  0  0  0
  -12.4294  -37.6654   23.5255 N   0  0  0  0  0  0  0  0  0  0  0  0
  -11.7036  -37.3469   22.4775 C   0  0  0  0  0  0  0  0  0  0  0  0
  -11.9079  -35.7596   21.8673 S   0  0  0  0  0  0  0  0  0  0  0  0
  -13.0452  -35.4322   23.1262 C   0  0  0  0  0  0  0  0  0  0  0  0
  -13.7040  -34.2263   23.4433 C   0  0  0  0  0  0  0  0  0  0  0  0
  -15.1919  -31.7674   25.5464 C   0  0  0  0  0  0  0  0  0  0  0  0
  -14.6799  -30.4549   25.9364 C   0  0  0  0  0  0  0  0  0  0  0  0
  -11.2364  -27.8241   26.3185 C   0  0  0  0  0  0  0  0  0  0  0  0
  -11.1269  -26.5487   26.1349 N   0  0  0  0  0  0  0  0  0  0  0  0
  -13.7223  -23.3149   25.5839 H   0  0  0  0  0  0  0  0  0  0  0  0
  -14.3511  -27.1882   25.5616 H   0  0  0  0  0  0  0  0  0  0  0  0
  -11.5219  -31.4113   26.3932 H   0  0  0  0  0  0  0  0  0  0  0  0
  -12.3087  -33.4131   25.7604 H   0  0  0  0  0  0  0  0  0  0  0  0
  -15.1721  -35.2487   26.3587 H   0  0  0  0  0  0  0  0  0  0  0  0
  -14.2003  -37.4064   25.6311 H   0  0  0  0  0  0  0  0  0  0  0  0
  -11.0203  -38.0476   22.0151 H   0  0  0  0  0  0  0  0  0  0  0  0
  -13.4711  -33.3294   22.8720 H   0  0  0  0  0  0  0  0  0  0  0  0
  -16.2321  -31.8561   25.2394 H   0  0  0  0  0  0  0  0  0  0  0  0
  -15.3846  -29.6371   25.7728 H   0  0  0  0  0  0  0  0  0  0  0  0
  -10.5205  -28.4265   26.8656 H   0  0  0  0  0  0  0  0  0  0  0  0
  1  2  2  0
  2  3  1  0
  2  4  1  0
  4  5  2  0
  5  6  1  0
  6  7  1  0
  7  8  2  0
  8  9  1  0
  9 10  2  0
 10 11  1  0
 11 12  2  0
 12 13  1  0
 13 14  2  0
 14 15  1  0
 15 16  2  0
 16 17  1  0
 17 18  1  0
 18 19  2  0
 10 20  1  0
 20 21  2  0
  6 22  1  0
 22 23  2  0
 23  4  1  0
 21  7  1  0
 19 11  1  0
 18 14  1  0
  3 24  1  0
  5 25  1  0
  8 26  1  0
  9 27  1  0
 12 28  1  0
 13 29  1  0
 16 30  1  0
 19 31  1  0
 20 32  1  0
 21 33  1  0
 22 34  1  0
M  END
>  <Energy>  (264) 
216.97403878582764

>  <compound_id>  (264) 
12521

>  <target_id>  (264) 
1

>  <reference_id>  (264) 
68

>  <inspiration_ids>  (264) 
[115, 68]

>  <energy_score>  (264) 
54.91776627998638

>  <distance_score>  (264) 
4.85876439053809

>  <path>  (264) 
/opt/xchem-fragalysis-2/maxwin/BulkDock/SCRATCH/511014/C12521-P68/C12521-P68.minimised.mol

>  <scratch_subdir>  (264) 
/opt/xchem-fragalysis-2/maxwin/BulkDock/SCRATCH/511014/C12521-P68

>  <fragmenstein_runtime>  (264) 
9.146673917770386

>  <fragmenstein_outcome>  (264) 
too moved

>  <fragmenstein_mode>  (264) 
expansion

>  <fragmenstein_error>  (264) 


$$$$
C12522-P115
     RDKit          3D

 37 39  0  0  0  0  0  0  0  0999 V2000
  -11.3458  -27.6299   27.1630 O   0  0  0  0  0  0  0  0  0  0  0  0
  -11.8622  -28.5494   27.7319 C   0  0  0  0  0  0  0  0  0  0  0  0
  -12.6169  -28.1994   29.0443 C   0  0  0  0  0  0  0  0  0  0  0  0
  -11.9901  -26.9788   29.6103 N   0  0  0  0  0  0  0  0  0  0  0  0
  -10.8646  -26.8507   30.3822 C   0  0  0  0  0  0  0  0  0  0  0  0
  -10.3281  -25.6559   30.2668 N   0  0  0  0  0  0  0  0  0  0  0  0
  -11.1301  -24.9830   29.3615 C   0  0  0  0  0  0  0  0  0  0  0  0
  -10.7306  -23.8245   28.5892 C   0  0  0  0  0  0  0  0  0  0  0  0
   -9.7912  -23.8299   27.8088 O   0  0  0  0  0  0  0  0  0  0  0  0
  -11.4633  -22.7010   28.7822 O   0  0  0  0  0  0  0  0  0  0  0  0
  -12.2354  -25.7454   29.0695 C   0  0  0  0  0  0  0  0  0  0  0  0
  -11.8519  -30.1642   27.3780 N   0  0  0  0  0  0  0  0  0  0  0  0
  -11.0509  -30.9840   26.2197 C   0  0  0  0  0  0  0  0  0  0  0  0
  -11.8040  -31.9932   25.1861 C   0  0  0  0  0  0  0  0  0  0  0  0
  -11.0959  -33.2591   24.6121 C   0  0  0  0  0  0  0  0  0  0  0  0
  -11.4582  -34.5287   25.0974 C   0  0  0  0  0  0  0  0  0  0  0  0
  -10.7278  -35.6924   24.7850 C   0  0  0  0  0  0  0  0  0  0  0  0
   -9.6332  -35.6314   23.9046 C   0  0  0  0  0  0  0  0  0  0  0  0
   -8.7822  -36.6845   23.5852 N   0  0  0  0  0  0  0  0  0  0  0  0
   -7.9023  -36.2758   22.7006 C   0  0  0  0  0  0  0  0  0  0  0  0
   -8.0489  -34.6494   22.1825 S   0  0  0  0  0  0  0  0  0  0  0  0
   -9.3515  -34.4026   23.3001 C   0  0  0  0  0  0  0  0  0  0  0  0
  -10.0616  -33.2103   23.6456 C   0  0  0  0  0  0  0  0  0  0  0  0
  -12.6431  -28.9733   29.8108 H   0  0  0  0  0  0  0  0  0  0  0  0
  -13.6500  -27.9372   28.7905 H   0  0  0  0  0  0  0  0  0  0  0  0
  -10.4244  -27.6559   30.9521 H   0  0  0  0  0  0  0  0  0  0  0  0
  -11.0916  -22.0733   28.1225 H   0  0  0  0  0  0  0  0  0  0  0  0
  -12.9887  -25.6047   28.3113 H   0  0  0  0  0  0  0  0  0  0  0  0
  -12.3213  -30.6774   28.1119 H   0  0  0  0  0  0  0  0  0  0  0  0
  -10.3312  -31.5175   26.7943 H   0  0  0  0  0  0  0  0  0  0  0  0
  -10.4407  -30.2716   25.6474 H   0  0  0  0  0  0  0  0  0  0  0  0
  -12.1181  -31.4234   24.3128 H   0  0  0  0  0  0  0  0  0  0  0  0
  -12.7323  -32.3134   25.6760 H   0  0  0  0  0  0  0  0  0  0  0  0
  -12.2865  -34.6317   25.7973 H   0  0  0  0  0  0  0  0  0  0  0  0
  -10.9920  -36.6422   25.2404 H   0  0  0  0  0  0  0  0  0  0  0  0
   -7.1357  -36.9255   22.2997 H   0  0  0  0  0  0  0  0  0  0  0  0
   -9.7610  -32.2592   23.2068 H   0  0  0  0  0  0  0  0  0  0  0  0
  1  2  2  0
  2  3  1  0
  3  4  1  0
  4  5  1  0
  5  6  2  0
  6  7  1  0
  7  8  1  0
  8  9  2  0
  8 10  1  0
  7 11  2  0
  2 12  1  0
 12 13  1  0
 13 14  1  0
 14 15  1  0
 15 16  2  0
 16 17  1  0
 17 18  2  0
 18 19  1  0
 19 20  2  0
 20 21  1  0
 21 22  1  0
 22 23  2  0
 11  4  1  0
 23 15  1  0
 22 18  1  0
  3 24  1  0
  3 25  1  0
  5 26  1  0
 10 27  1  0
 11 28  1  0
 12 29  1  0
 13 30  1  0
 13 31  1  0
 14 32  1  0
 14 33  1  0
 16 34  1  0
 17 35  1  0
 20 36  1  0
 23 37  1  0
M  END
>  <Energy>  (265) 
124.19930163507338

>  <compound_id>  (265) 
12522

>  <target_id>  (265) 
1

>  <reference_id>  (265) 
115

>  <inspiration_ids>  (265) 
[115, 68]

>  <energy_score>  (265) 
-20.00684246805747

>  <distance_score>  (265) 
2.3521234812617564

>  <path>  (265) 
/opt/xchem-fragalysis-2/maxwin/BulkDock/SCRATCH/511014/C12522-P115/C12522-P115.minimised.mol

>  <scratch_subdir>  (265) 
/opt/xchem-fragalysis-2/maxwin/BulkDock/SCRATCH/511014/C12522-P115

>  <fragmenstein_runtime>  (265) 
4.34914493560791

>  <fragmenstein_outcome>  (265) 
too moved

>  <fragmenstein_mode>  (265) 
expansion

>  <fragmenstein_error>  (265) 


$$$$
C12522-P68
     RDKit          3D

 37 39  0  0  0  0  0  0  0  0999 V2000
  -10.3060  -28.8902   27.1483 O   0  0  0  0  0  0  0  0  0  0  0  0
  -11.4274  -29.1675   27.5744 C   0  0  0  0  0  0  0  0  0  0  0  0
  -11.9391  -28.1999   29.2542 C   0  0  0  0  0  0  0  0  0  0  0  0
  -12.1038  -28.6047   31.0049 N   0  0  0  0  0  0  0  0  0  0  0  0
  -12.2436  -29.6388   31.8942 C   0  0  0  0  0  0  0  0  0  0  0  0
  -10.9684  -29.6172   32.2861 N   0  0  0  0  0  0  0  0  0  0  0  0
  -10.5527  -28.4138   31.4639 C   0  0  0  0  0  0  0  0  0  0  0  0
   -9.4483  -28.2006   30.0482 C   0  0  0  0  0  0  0  0  0  0  0  0
   -8.3552  -28.7010   29.8185 O   0  0  0  0  0  0  0  0  0  0  0  0
   -9.9483  -27.4299   28.9957 O   0  0  0  0  0  0  0  0  0  0  0  0
  -11.5789  -27.6970   31.9565 C   0  0  0  0  0  0  0  0  0  0  0  0
  -12.7142  -30.5021   26.9588 N   0  0  0  0  0  0  0  0  0  0  0  0
  -12.5988  -31.5000   25.9745 C   0  0  0  0  0  0  0  0  0  0  0  0
  -13.6562  -32.5897   25.7302 C   0  0  0  0  0  0  0  0  0  0  0  0
  -13.0412  -33.8290   25.0587 C   0  0  0  0  0  0  0  0  0  0  0  0
  -13.3919  -35.1013   25.5224 C   0  0  0  0  0  0  0  0  0  0  0  0
  -12.7175  -36.2525   25.0811 C   0  0  0  0  0  0  0  0  0  0  0  0
  -11.6656  -36.1463   24.1509 C   0  0  0  0  0  0  0  0  0  0  0  0
  -10.8663  -37.1833   23.6989 N   0  0  0  0  0  0  0  0  0  0  0  0
   -9.9854  -36.7178   22.8431 C   0  0  0  0  0  0  0  0  0  0  0  0
  -10.0868  -35.0460   22.4881 S   0  0  0  0  0  0  0  0  0  0  0  0
  -11.3799  -34.8892   23.6202 C   0  0  0  0  0  0  0  0  0  0  0  0
  -12.0840  -33.7339   24.0248 C   0  0  0  0  0  0  0  0  0  0  0  0
  -12.8651  -28.2747   29.7578 H   0  0  0  0  0  0  0  0  0  0  0  0
  -12.5390  -27.3901   29.0019 H   0  0  0  0  0  0  0  0  0  0  0  0
  -13.0324  -30.3536   32.0795 H   0  0  0  0  0  0  0  0  0  0  0  0
   -9.6323  -27.8959   28.1687 H   0  0  0  0  0  0  0  0  0  0  0  0
  -12.0493  -27.6372   32.9416 H   0  0  0  0  0  0  0  0  0  0  0  0
  -13.5109  -30.5487   27.5577 H   0  0  0  0  0  0  0  0  0  0  0  0
  -11.6525  -31.9853   26.0693 H   0  0  0  0  0  0  0  0  0  0  0  0
  -12.6141  -30.7756   25.3069 H   0  0  0  0  0  0  0  0  0  0  0  0
  -14.4858  -32.2244   25.1159 H   0  0  0  0  0  0  0  0  0  0  0  0
  -14.0865  -32.8803   26.6964 H   0  0  0  0  0  0  0  0  0  0  0  0
  -14.1651  -35.2171   26.2807 H   0  0  0  0  0  0  0  0  0  0  0  0
  -12.9739  -37.2301   25.4791 H   0  0  0  0  0  0  0  0  0  0  0  0
   -9.2444  -37.3534   22.3754 H   0  0  0  0  0  0  0  0  0  0  0  0
  -11.8267  -32.7837   23.5714 H   0  0  0  0  0  0  0  0  0  0  0  0
  1  2  2  0
  2  3  1  0
  3  4  1  0
  4  5  1  0
  5  6  2  0
  6  7  1  0
  7  8  1  0
  8  9  2  0
  8 10  1  0
  7 11  2  0
  2 12  1  0
 12 13  1  0
 13 14  1  0
 14 15  1  0
 15 16  2  0
 16 17  1  0
 17 18  2  0
 18 19  1  0
 19 20  2  0
 20 21  1  0
 21 22  1  0
 22 23  2  0
 11  4  1  0
 23 15  1  0
 22 18  1  0
  3 24  1  0
  3 25  1  0
  5 26  1  0
 10 27  1  0
 11 28  1  0
 12 29  1  0
 13 30  1  0
 13 31  1  0
 14 32  1  0
 14 33  1  0
 16 34  1  0
 17 35  1  0
 20 36  1  0
 23 37  1  0
M  END
>  <Energy>  (266) 
549.59662541808802

>  <compound_id>  (266) 
12522

>  <target_id>  (266) 
1

>  <reference_id>  (266) 
68

>  <inspiration_ids>  (266) 
[115, 68]

>  <energy_score>  (266) 
435.32227160075115

>  <distance_score>  (266) 
3.5098675231664833

>  <path>  (266) 
/opt/xchem-fragalysis-2/maxwin/BulkDock/SCRATCH/511014/C12522-P68/C12522-P68.minimised.mol

>  <scratch_subdir>  (266) 
/opt/xchem-fragalysis-2/maxwin/BulkDock/SCRATCH/511014/C12522-P68

>  <fragmenstein_runtime>  (266) 
19.386375665664673

>  <fragmenstein_outcome>  (266) 
too moved

>  <fragmenstein_mode>  (266) 
expansion

>  <fragmenstein_error>  (266) 


$$$$
C12524-P115
     RDKit          3D

 38 40  0  0  0  0  0  0  0  0999 V2000
  -11.2533  -30.9301   26.5997 O   0  0  0  0  0  0  0  0  0  0  0  0
  -12.3737  -31.2671   26.6743 C   0  0  0  0  0  0  0  0  0  0  0  0
  -12.9516  -32.4135   25.7338 C   0  0  0  0  0  0  0  0  0  0  0  0
  -12.1104  -32.7421   24.4313 C   0  0  0  0  0  0  0  0  0  0  0  0
  -11.1847  -33.9639   24.3222 C   0  0  0  0  0  0  0  0  0  0  0  0
  -11.2972  -35.0849   25.1461 C   0  0  0  0  0  0  0  0  0  0  0  0
  -10.3896  -36.1594   25.0594 C   0  0  0  0  0  0  0  0  0  0  0  0
   -9.3568  -36.1568   24.1015 C   0  0  0  0  0  0  0  0  0  0  0  0
   -8.3773  -37.1311   23.9476 N   0  0  0  0  0  0  0  0  0  0  0  0
   -7.6019  -36.8094   22.9375 C   0  0  0  0  0  0  0  0  0  0  0  0
   -7.9829  -35.3548   22.1183 S   0  0  0  0  0  0  0  0  0  0  0  0
   -9.2873  -35.0781   23.2187 C   0  0  0  0  0  0  0  0  0  0  0  0
  -10.1845  -33.9845   23.3142 C   0  0  0  0  0  0  0  0  0  0  0  0
  -13.5345  -30.7465   27.6028 N   0  0  0  0  0  0  0  0  0  0  0  0
  -13.5127  -29.7278   28.7394 C   0  0  0  0  0  0  0  0  0  0  0  0
  -13.5269  -30.5399   30.0551 C   0  0  0  0  0  0  0  0  0  0  0  0
  -14.4730  -31.6219   29.9788 O   0  0  0  0  0  0  0  0  0  0  0  0
  -12.6362  -28.4218   28.8872 C   0  0  0  0  0  0  0  0  0  0  0  0
  -12.2730  -27.8930   30.0537 N   0  0  0  0  0  0  0  0  0  0  0  0
  -11.5699  -26.7318   29.8199 C   0  0  0  0  0  0  0  0  0  0  0  0
  -11.5040  -26.5101   28.4777 C   0  0  0  0  0  0  0  0  0  0  0  0
  -12.1459  -27.5802   27.9048 N   0  0  0  0  0  0  0  0  0  0  0  0
  -13.1509  -33.3080   26.3271 H   0  0  0  0  0  0  0  0  0  0  0  0
  -13.9449  -32.0938   25.4065 H   0  0  0  0  0  0  0  0  0  0  0  0
  -11.5150  -31.8542   24.1866 H   0  0  0  0  0  0  0  0  0  0  0  0
  -12.8378  -32.8635   23.6168 H   0  0  0  0  0  0  0  0  0  0  0  0
  -12.0691  -35.1468   25.9086 H   0  0  0  0  0  0  0  0  0  0  0  0
  -10.4738  -36.9981   25.7443 H   0  0  0  0  0  0  0  0  0  0  0  0
   -6.7700  -37.4273   22.6264 H   0  0  0  0  0  0  0  0  0  0  0  0
  -10.0739  -33.1394   22.6365 H   0  0  0  0  0  0  0  0  0  0  0  0
  -14.3625  -31.3169   27.4645 H   0  0  0  0  0  0  0  0  0  0  0  0
  -14.5285  -29.3132   28.6467 H   0  0  0  0  0  0  0  0  0  0  0  0
  -13.8479  -29.9064   30.8785 H   0  0  0  0  0  0  0  0  0  0  0  0
  -12.5465  -30.9641   30.2843 H   0  0  0  0  0  0  0  0  0  0  0  0
  -14.4821  -32.0344   30.8620 H   0  0  0  0  0  0  0  0  0  0  0  0
  -11.1621  -26.1364   30.6273 H   0  0  0  0  0  0  0  0  0  0  0  0
  -11.0519  -25.7290   27.8827 H   0  0  0  0  0  0  0  0  0  0  0  0
  -12.2218  -27.7293   26.9031 H   0  0  0  0  0  0  0  0  0  0  0  0
  1  2  2  0
  2  3  1  0
  3  4  1  0
  4  5  1  0
  5  6  2  0
  6  7  1  0
  7  8  2  0
  8  9  1  0
  9 10  2  0
 10 11  1  0
 11 12  1  0
 12 13  2  0
  2 14  1  0
 14 15  1  0
 15 16  1  0
 16 17  1  0
 15 18  1  0
 18 19  2  0
 19 20  1  0
 20 21  2  0
 21 22  1  0
 13  5  1  0
 22 18  1  0
 12  8  1  0
  3 23  1  0
  3 24  1  0
  4 25  1  0
  4 26  1  0
  6 27  1  0
  7 28  1  0
 10 29  1  0
 13 30  1  0
 14 31  1  0
 15 32  1  0
 16 33  1  0
 16 34  1  0
 17 35  1  0
 20 36  1  0
 21 37  1  0
 22 38  1  0
M  END
>  <Energy>  (267) 
71.832188080865564

>  <compound_id>  (267) 
12524

>  <target_id>  (267) 
1

>  <reference_id>  (267) 
115

>  <inspiration_ids>  (267) 
[115, 68]

>  <energy_score>  (267) 
-43.71387611073396

>  <distance_score>  (267) 
2.474803573744527

>  <path>  (267) 
/opt/xchem-fragalysis-2/maxwin/BulkDock/SCRATCH/511014/C12524-P115/C12524-P115.minimised.mol

>  <scratch_subdir>  (267) 
/opt/xchem-fragalysis-2/maxwin/BulkDock/SCRATCH/511014/C12524-P115

>  <fragmenstein_runtime>  (267) 
3.540881872177124

>  <fragmenstein_outcome>  (267) 
too moved

>  <fragmenstein_mode>  (267) 
expansion

>  <fragmenstein_error>  (267) 


$$$$
C12524-P68
     RDKit          3D

 38 40  0  0  0  0  0  0  0  0999 V2000
  -11.3793  -27.8118   27.0454 O   0  0  0  0  0  0  0  0  0  0  0  0
  -11.0124  -28.9519   27.2129 C   0  0  0  0  0  0  0  0  0  0  0  0
  -12.3348  -30.4561   26.5335 C   0  0  0  0  0  0  0  0  0  0  0  0
  -13.4985  -31.5937   26.6002 C   0  0  0  0  0  0  0  0  0  0  0  0
  -13.3148  -32.8896   25.6903 C   0  0  0  0  0  0  0  0  0  0  0  0
  -12.0839  -33.3640   25.1939 C   0  0  0  0  0  0  0  0  0  0  0  0
  -11.9001  -34.5483   24.4694 C   0  0  0  0  0  0  0  0  0  0  0  0
  -13.0027  -35.3502   24.2144 C   0  0  0  0  0  0  0  0  0  0  0  0
  -12.9641  -36.5611   23.5515 N   0  0  0  0  0  0  0  0  0  0  0  0
  -14.1791  -37.0456   23.4856 C   0  0  0  0  0  0  0  0  0  0  0  0
  -15.4134  -36.0979   24.2031 S   0  0  0  0  0  0  0  0  0  0  0  0
  -14.2479  -34.9163   24.6728 C   0  0  0  0  0  0  0  0  0  0  0  0
  -14.4237  -33.7029   25.4019 C   0  0  0  0  0  0  0  0  0  0  0  0
   -9.8247  -29.4759   27.9244 N   0  0  0  0  0  0  0  0  0  0  0  0
   -8.6167  -28.6708   28.8835 C   0  0  0  0  0  0  0  0  0  0  0  0
   -6.9914  -28.5431   28.7278 C   0  0  0  0  0  0  0  0  0  0  0  0
   -6.3073  -27.5340   29.4250 O   0  0  0  0  0  0  0  0  0  0  0  0
   -9.0946  -27.6082   30.0801 C   0  0  0  0  0  0  0  0  0  0  0  0
   -9.9170  -27.7281   31.0744 N   0  0  0  0  0  0  0  0  0  0  0  0
   -9.5903  -26.4718   31.9288 C   0  0  0  0  0  0  0  0  0  0  0  0
   -8.6995  -25.5689   31.4684 C   0  0  0  0  0  0  0  0  0  0  0  0
   -8.2404  -26.3230   30.4355 N   0  0  0  0  0  0  0  0  0  0  0  0
  -11.6019  -31.2402   26.3485 H   0  0  0  0  0  0  0  0  0  0  0  0
  -12.8403  -29.9497   25.7934 H   0  0  0  0  0  0  0  0  0  0  0  0
  -14.4257  -31.1202   26.2410 H   0  0  0  0  0  0  0  0  0  0  0  0
  -13.7647  -31.9221   27.6018 H   0  0  0  0  0  0  0  0  0  0  0  0
  -11.1456  -32.8762   25.3746 H   0  0  0  0  0  0  0  0  0  0  0  0
  -10.9124  -34.8532   24.1371 H   0  0  0  0  0  0  0  0  0  0  0  0
  -14.4001  -37.9897   23.0047 H   0  0  0  0  0  0  0  0  0  0  0  0
  -15.4163  -33.4318   25.7538 H   0  0  0  0  0  0  0  0  0  0  0  0
   -9.7800  -30.4790   27.7965 H   0  0  0  0  0  0  0  0  0  0  0  0
   -8.5414  -29.4595   29.6319 H   0  0  0  0  0  0  0  0  0  0  0  0
   -6.5877  -29.3672   29.2730 H   0  0  0  0  0  0  0  0  0  0  0  0
   -6.6350  -28.4749   27.7053 H   0  0  0  0  0  0  0  0  0  0  0  0
   -5.6549  -28.0177   29.9529 H   0  0  0  0  0  0  0  0  0  0  0  0
  -10.2887  -26.2982   32.7709 H   0  0  0  0  0  0  0  0  0  0  0  0
   -8.5702  -24.6510   31.9709 H   0  0  0  0  0  0  0  0  0  0  0  0
   -7.2671  -26.3984   30.1874 H   0  0  0  0  0  0  0  0  0  0  0  0
  1  2  2  0
  2  3  1  0
  3  4  1  0
  4  5  1  0
  5  6  2  0
  6  7  1  0
  7  8  2  0
  8  9  1  0
  9 10  2  0
 10 11  1  0
 11 12  1  0
 12 13  2  0
  2 14  1  0
 14 15  1  0
 15 16  1  0
 16 17  1  0
 15 18  1  0
 18 19  2  0
 19 20  1  0
 20 21  2  0
 21 22  1  0
 13  5  1  0
 22 18  1  0
 12  8  1  0
  3 23  1  0
  3 24  1  0
  4 25  1  0
  4 26  1  0
  6 27  1  0
  7 28  1  0
 10 29  1  0
 13 30  1  0
 14 31  1  0
 15 32  1  0
 16 33  1  0
 16 34  1  0
 17 35  1  0
 20 36  1  0
 21 37  1  0
 22 38  1  0
M  END
>  <Energy>  (268) 
299.91403550495909

>  <compound_id>  (268) 
12524

>  <target_id>  (268) 
1

>  <reference_id>  (268) 
68

>  <inspiration_ids>  (268) 
[115, 68]

>  <energy_score>  (268) 
197.32858298398037

>  <distance_score>  (268) 
4.7097557594036354

>  <path>  (268) 
/opt/xchem-fragalysis-2/maxwin/BulkDock/SCRATCH/511014/C12524-P68/C12524-P68.minimised.mol

>  <scratch_subdir>  (268) 
/opt/xchem-fragalysis-2/maxwin/BulkDock/SCRATCH/511014/C12524-P68

>  <fragmenstein_runtime>  (268) 
6.766571760177612

>  <fragmenstein_outcome>  (268) 
too moved

>  <fragmenstein_mode>  (268) 
expansion

>  <fragmenstein_error>  (268) 


$$$$
C12525-P115
     RDKit          3D

 39 41  0  0  0  0  0  0  0  0999 V2000
   -6.0317  -31.5115   21.7175 C   0  0  0  0  0  0  0  0  0  0  0  0
   -7.1933  -30.6894   21.7524 O   0  0  0  0  0  0  0  0  0  0  0  0
   -7.8286  -30.7313   23.0244 C   0  0  0  0  0  0  0  0  0  0  0  0
   -9.2922  -30.3130   22.9105 C   0  0  0  0  0  0  0  0  0  0  0  0
  -10.0813  -30.5900   24.1384 N   0  0  0  0  0  0  0  0  0  0  0  0
   -9.8597  -29.6946   25.3685 C   0  0  0  0  0  0  0  0  0  0  0  0
  -10.6668  -28.2176   25.8890 C   0  0  0  0  0  0  0  0  0  0  0  0
  -11.3637  -28.0420   27.0678 N   0  0  0  0  0  0  0  0  0  0  0  0
  -11.7021  -26.7237   27.2379 C   0  0  0  0  0  0  0  0  0  0  0  0
  -11.2459  -26.0283   26.1667 C   0  0  0  0  0  0  0  0  0  0  0  0
  -10.5969  -26.9685   25.4155 N   0  0  0  0  0  0  0  0  0  0  0  0
  -11.2150  -31.8798   24.0607 S   0  0  0  0  0  0  0  0  0  0  0  0
  -11.9147  -31.9185   25.3292 O   0  0  0  0  0  0  0  0  0  0  0  0
  -11.9685  -31.8422   22.8199 O   0  0  0  0  0  0  0  0  0  0  0  0
  -10.3707  -33.4664   23.8951 C   0  0  0  0  0  0  0  0  0  0  0  0
  -10.7964  -34.5349   24.6936 C   0  0  0  0  0  0  0  0  0  0  0  0
  -10.1895  -35.7948   24.5998 C   0  0  0  0  0  0  0  0  0  0  0  0
   -9.1707  -36.0089   23.6533 C   0  0  0  0  0  0  0  0  0  0  0  0
   -8.4497  -37.1800   23.4849 N   0  0  0  0  0  0  0  0  0  0  0  0
   -7.6135  -37.0361   22.4824 C   0  0  0  0  0  0  0  0  0  0  0  0
   -7.6323  -35.5225   21.6858 S   0  0  0  0  0  0  0  0  0  0  0  0
   -8.8418  -34.9669   22.7830 C   0  0  0  0  0  0  0  0  0  0  0  0
   -9.4544  -33.6992   22.8624 C   0  0  0  0  0  0  0  0  0  0  0  0
   -5.3305  -31.2178   22.5022 H   0  0  0  0  0  0  0  0  0  0  0  0
   -6.3074  -32.5626   21.8336 H   0  0  0  0  0  0  0  0  0  0  0  0
   -5.5494  -31.3856   20.7448 H   0  0  0  0  0  0  0  0  0  0  0  0
   -7.7619  -31.7408   23.4311 H   0  0  0  0  0  0  0  0  0  0  0  0
   -7.2856  -30.0448   23.6724 H   0  0  0  0  0  0  0  0  0  0  0  0
   -9.7388  -30.8200   22.0478 H   0  0  0  0  0  0  0  0  0  0  0  0
   -9.3745  -29.2655   22.6308 H   0  0  0  0  0  0  0  0  0  0  0  0
   -8.8018  -29.4270   25.3915 H   0  0  0  0  0  0  0  0  0  0  0  0
  -10.0428  -30.3896   26.1956 H   0  0  0  0  0  0  0  0  0  0  0  0
  -12.2395  -26.3706   28.1060 H   0  0  0  0  0  0  0  0  0  0  0  0
  -11.2602  -24.9765   25.9165 H   0  0  0  0  0  0  0  0  0  0  0  0
   -9.8505  -26.7588   24.8304 H   0  0  0  0  0  0  0  0  0  0  0  0
  -11.5950  -34.3977   25.4207 H   0  0  0  0  0  0  0  0  0  0  0  0
  -10.4935  -36.6042   25.2570 H   0  0  0  0  0  0  0  0  0  0  0  0
   -6.9498  -37.8302   22.1657 H   0  0  0  0  0  0  0  0  0  0  0  0
   -9.2105  -32.9440   22.1261 H   0  0  0  0  0  0  0  0  0  0  0  0
  1  2  1  0
  2  3  1  0
  3  4  1  0
  4  5  1  0
  5  6  1  0
  6  7  1  0
  7  8  2  0
  8  9  1  0
  9 10  2  0
 10 11  1  0
  5 12  1  0
 12 13  2  0
 12 14  2  0
 12 15  1  0
 15 16  2  0
 16 17  1  0
 17 18  2  0
 18 19  1  0
 19 20  2  0
 20 21  1  0
 21 22  1  0
 22 23  2  0
 11  7  1  0
 23 15  1  0
 22 18  1  0
  1 24  1  0
  1 25  1  0
  1 26  1  0
  3 27  1  0
  3 28  1  0
  4 29  1  0
  4 30  1  0
  6 31  1  0
  6 32  1  0
  9 33  1  0
 10 34  1  0
 11 35  1  0
 16 36  1  0
 17 37  1  0
 20 38  1  0
 23 39  1  0
M  END
>  <Energy>  (269) 
56.247853626467126

>  <compound_id>  (269) 
12525

>  <target_id>  (269) 
1

>  <reference_id>  (269) 
115

>  <inspiration_ids>  (269) 
[115, 68]

>  <energy_score>  (269) 
-31.673918015607

>  <distance_score>  (269) 
3.1458629546630053

>  <path>  (269) 
/opt/xchem-fragalysis-2/maxwin/BulkDock/SCRATCH/511014/C12525-P115/C12525-P115.minimised.mol

>  <scratch_subdir>  (269) 
/opt/xchem-fragalysis-2/maxwin/BulkDock/SCRATCH/511014/C12525-P115

>  <fragmenstein_runtime>  (269) 
3.6969189643859863

>  <fragmenstein_outcome>  (269) 
too moved

>  <fragmenstein_mode>  (269) 
expansion

>  <fragmenstein_error>  (269) 


$$$$
C12525-P68
     RDKit          3D

 39 41  0  0  0  0  0  0  0  0999 V2000
   -9.7258  -35.2360   25.0585 C   0  0  0  0  0  0  0  0  0  0  0  0
  -10.9286  -34.4722   25.0438 O   0  0  0  0  0  0  0  0  0  0  0  0
  -10.8987  -33.4764   24.0305 C   0  0  0  0  0  0  0  0  0  0  0  0
  -12.1603  -32.5934   24.0411 C   0  0  0  0  0  0  0  0  0  0  0  0
  -12.6831  -32.2160   25.4958 N   0  0  0  0  0  0  0  0  0  0  0  0
  -12.5504  -30.6013   26.3840 C   0  0  0  0  0  0  0  0  0  0  0  0
  -11.3604  -29.0558   27.0553 C   0  0  0  0  0  0  0  0  0  0  0  0
  -11.4446  -27.8857   26.2603 N   0  0  0  0  0  0  0  0  0  0  0  0
  -10.5975  -27.0439   26.8170 C   0  0  0  0  0  0  0  0  0  0  0  0
  -10.1668  -27.7299   27.9179 C   0  0  0  0  0  0  0  0  0  0  0  0
  -10.0969  -29.0041   27.5031 N   0  0  0  0  0  0  0  0  0  0  0  0
  -14.2765  -32.9809   25.6589 S   0  0  0  0  0  0  0  0  0  0  0  0
  -15.0924  -32.4770   24.5736 O   0  0  0  0  0  0  0  0  0  0  0  0
  -14.6964  -32.8396   27.0318 O   0  0  0  0  0  0  0  0  0  0  0  0
  -13.9853  -34.7489   25.3348 C   0  0  0  0  0  0  0  0  0  0  0  0
  -13.8721  -35.6230   26.4075 C   0  0  0  0  0  0  0  0  0  0  0  0
  -13.2922  -36.8896   26.2306 C   0  0  0  0  0  0  0  0  0  0  0  0
  -12.8131  -37.2692   24.9606 C   0  0  0  0  0  0  0  0  0  0  0  0
  -12.0626  -38.3963   24.6721 N   0  0  0  0  0  0  0  0  0  0  0  0
  -11.7875  -38.4243   23.3882 C   0  0  0  0  0  0  0  0  0  0  0  0
  -12.4438  -37.1549   22.4431 S   0  0  0  0  0  0  0  0  0  0  0  0
  -13.1108  -36.4489   23.8710 C   0  0  0  0  0  0  0  0  0  0  0  0
  -13.8083  -35.2337   24.0254 C   0  0  0  0  0  0  0  0  0  0  0  0
   -9.5910  -35.7544   24.1046 H   0  0  0  0  0  0  0  0  0  0  0  0
   -8.8672  -34.5896   25.2575 H   0  0  0  0  0  0  0  0  0  0  0  0
   -9.7967  -35.9812   25.8550 H   0  0  0  0  0  0  0  0  0  0  0  0
  -10.0037  -32.8628   24.1416 H   0  0  0  0  0  0  0  0  0  0  0  0
  -10.8238  -33.9632   23.0501 H   0  0  0  0  0  0  0  0  0  0  0  0
  -12.9409  -33.1070   23.4990 H   0  0  0  0  0  0  0  0  0  0  0  0
  -12.0295  -31.7693   23.3340 H   0  0  0  0  0  0  0  0  0  0  0  0
  -13.3641  -30.7882   27.0782 H   0  0  0  0  0  0  0  0  0  0  0  0
  -11.6594  -31.2459   26.5295 H   0  0  0  0  0  0  0  0  0  0  0  0
  -10.5506  -25.9908   26.5609 H   0  0  0  0  0  0  0  0  0  0  0  0
   -9.8936  -27.4653   28.9086 H   0  0  0  0  0  0  0  0  0  0  0  0
   -9.6019  -29.7881   27.8715 H   0  0  0  0  0  0  0  0  0  0  0  0
  -14.1783  -35.3087   27.4017 H   0  0  0  0  0  0  0  0  0  0  0  0
  -13.1382  -37.5517   27.0770 H   0  0  0  0  0  0  0  0  0  0  0  0
  -11.1957  -39.2143   22.9440 H   0  0  0  0  0  0  0  0  0  0  0  0
  -14.0639  -34.6463   23.1509 H   0  0  0  0  0  0  0  0  0  0  0  0
  1  2  1  0
  2  3  1  0
  3  4  1  0
  4  5  1  0
  5  6  1  0
  6  7  1  0
  7  8  2  0
  8  9  1  0
  9 10  2  0
 10 11  1  0
  5 12  1  0
 12 13  2  0
 12 14  2  0
 12 15  1  0
 15 16  2  0
 16 17  1  0
 17 18  2  0
 18 19  1  0
 19 20  2  0
 20 21  1  0
 21 22  1  0
 22 23  2  0
 11  7  1  0
 23 15  1  0
 22 18  1  0
  1 24  1  0
  1 25  1  0
  1 26  1  0
  3 27  1  0
  3 28  1  0
  4 29  1  0
  4 30  1  0
  6 31  1  0
  6 32  1  0
  9 33  1  0
 10 34  1  0
 11 35  1  0
 16 36  1  0
 17 37  1  0
 20 38  1  0
 23 39  1  0
M  END
>  <Energy>  (270) 
241.87046386477436

>  <compound_id>  (270) 
12525

>  <target_id>  (270) 
1

>  <reference_id>  (270) 
68

>  <inspiration_ids>  (270) 
[115, 68]

>  <energy_score>  (270) 
153.94869222270574

>  <distance_score>  (270) 
4.5648796366943865

>  <path>  (270) 
/opt/xchem-fragalysis-2/maxwin/BulkDock/SCRATCH/511014/C12525-P68/C12525-P68.minimised.mol

>  <scratch_subdir>  (270) 
/opt/xchem-fragalysis-2/maxwin/BulkDock/SCRATCH/511014/C12525-P68

>  <fragmenstein_runtime>  (270) 
8.48740816116333

>  <fragmenstein_outcome>  (270) 
too moved

>  <fragmenstein_mode>  (270) 
expansion

>  <fragmenstein_error>  (270) 


$$$$
C12530-P115
     RDKit          3D

 40 43  0  0  0  0  0  0  0  0999 V2000
   -9.1054  -31.6758   24.1182 O   0  0  0  0  0  0  0  0  0  0  0  0
  -10.2192  -31.5145   24.4366 C   0  0  0  0  0  0  0  0  0  0  0  0
  -11.3680  -32.4261   24.3590 N   0  0  0  0  0  0  0  0  0  0  0  0
  -11.4424  -33.7663   23.9734 C   0  0  0  0  0  0  0  0  0  0  0  0
  -12.5323  -34.5550   24.3079 C   0  0  0  0  0  0  0  0  0  0  0  0
  -12.4787  -35.9449   24.0990 C   0  0  0  0  0  0  0  0  0  0  0  0
  -11.3260  -36.5484   23.5447 C   0  0  0  0  0  0  0  0  0  0  0  0
  -11.1236  -37.9035   23.3317 N   0  0  0  0  0  0  0  0  0  0  0  0
   -9.9353  -38.0919   22.8015 C   0  0  0  0  0  0  0  0  0  0  0  0
   -8.9942  -36.6922   22.5183 S   0  0  0  0  0  0  0  0  0  0  0  0
  -10.2641  -35.7281   23.1709 C   0  0  0  0  0  0  0  0  0  0  0  0
  -10.3126  -34.3413   23.3612 C   0  0  0  0  0  0  0  0  0  0  0  0
  -10.8590  -30.3513   25.1332 N   0  0  0  0  0  0  0  0  0  0  0  0
  -10.8293  -30.5649   26.6301 C   0  0  0  0  0  0  0  0  0  0  0  0
  -11.8676  -29.7964   27.6715 C   0  0  0  0  0  0  0  0  0  0  0  0
  -11.7912  -28.0781   27.6123 C   0  0  0  0  0  0  0  0  0  0  0  0
  -11.4391  -27.1213   28.7474 C   0  0  0  0  0  0  0  0  0  0  0  0
  -11.2906  -25.7475   28.6218 C   0  0  0  0  0  0  0  0  0  0  0  0
  -10.9926  -25.2800   29.8662 N   0  0  0  0  0  0  0  0  0  0  0  0
  -10.9706  -26.3562   30.6952 C   0  0  0  0  0  0  0  0  0  0  0  0
  -11.3372  -27.4566   30.0700 N   0  0  0  0  0  0  0  0  0  0  0  0
  -10.9419  -27.6865   26.2913 C   0  0  0  0  0  0  0  0  0  0  0  0
  -10.2669  -28.9769   25.5302 C   0  0  0  0  0  0  0  0  0  0  0  0
  -12.1633  -31.9925   24.7972 H   0  0  0  0  0  0  0  0  0  0  0  0
  -13.4085  -34.1276   24.7852 H   0  0  0  0  0  0  0  0  0  0  0  0
  -13.3129  -36.5762   24.3905 H   0  0  0  0  0  0  0  0  0  0  0  0
   -9.5672  -39.0779   22.5503 H   0  0  0  0  0  0  0  0  0  0  0  0
   -9.4527  -33.7403   23.0774 H   0  0  0  0  0  0  0  0  0  0  0  0
   -9.8430  -30.8605   26.9411 H   0  0  0  0  0  0  0  0  0  0  0  0
  -11.3127  -31.5393   26.6537 H   0  0  0  0  0  0  0  0  0  0  0  0
  -12.0449  -30.2538   28.6440 H   0  0  0  0  0  0  0  0  0  0  0  0
  -12.8347  -30.2529   27.4076 H   0  0  0  0  0  0  0  0  0  0  0  0
  -12.8295  -27.7197   27.5160 H   0  0  0  0  0  0  0  0  0  0  0  0
  -11.3687  -25.0816   27.7728 H   0  0  0  0  0  0  0  0  0  0  0  0
  -10.8343  -24.3174   30.1307 H   0  0  0  0  0  0  0  0  0  0  0  0
  -10.7181  -26.2635   31.7435 H   0  0  0  0  0  0  0  0  0  0  0  0
  -10.1223  -27.0072   26.5493 H   0  0  0  0  0  0  0  0  0  0  0  0
  -11.5383  -27.0781   25.5946 H   0  0  0  0  0  0  0  0  0  0  0  0
  -10.3222  -28.5641   24.5321 H   0  0  0  0  0  0  0  0  0  0  0  0
   -9.1770  -29.0753   25.6360 H   0  0  0  0  0  0  0  0  0  0  0  0
  1  2  2  0
  2  3  1  0
  3  4  1  0
  4  5  2  0
  5  6  1  0
  6  7  2  0
  7  8  1  0
  8  9  2  0
  9 10  1  0
 10 11  1  0
 11 12  2  0
  2 13  1  0
 13 14  1  0
 14 15  1  0
 15 16  1  0
 16 17  1  0
 17 18  2  0
 18 19  1  0
 19 20  1  0
 20 21  2  0
 16 22  1  0
 22 23  1  0
 12  4  1  0
 23 13  1  0
 11  7  1  0
 21 17  1  0
  3 24  1  0
  5 25  1  0
  6 26  1  0
  9 27  1  0
 12 28  1  0
 14 29  1  0
 14 30  1  0
 15 31  1  0
 15 32  1  0
 16 33  1  0
 18 34  1  0
 19 35  1  0
 20 36  1  0
 22 37  1  0
 22 38  1  0
 23 39  1  0
 23 40  1  0
M  END
>  <Energy>  (271) 
88.924376215897041

>  <compound_id>  (271) 
12530

>  <target_id>  (271) 
1

>  <reference_id>  (271) 
115

>  <inspiration_ids>  (271) 
[115, 68]

>  <energy_score>  (271) 
53.34245029242376

>  <distance_score>  (271) 
2.4189544110432344

>  <path>  (271) 
/opt/xchem-fragalysis-2/maxwin/BulkDock/SCRATCH/511014/C12530-P115/C12530-P115.minimised.mol

>  <scratch_subdir>  (271) 
/opt/xchem-fragalysis-2/maxwin/BulkDock/SCRATCH/511014/C12530-P115

>  <fragmenstein_runtime>  (271) 
4.445341348648071

>  <fragmenstein_outcome>  (271) 
too moved

>  <fragmenstein_mode>  (271) 
expansion

>  <fragmenstein_error>  (271) 


$$$$
C12530-P68
     RDKit          3D

 40 43  0  0  0  0  0  0  0  0999 V2000
  -12.4964  -31.9593   24.2692 O   0  0  0  0  0  0  0  0  0  0  0  0
  -12.6083  -31.4929   25.8031 C   0  0  0  0  0  0  0  0  0  0  0  0
  -12.9220  -32.4106   26.2952 N   0  0  0  0  0  0  0  0  0  0  0  0
  -13.1738  -33.8877   26.0512 C   0  0  0  0  0  0  0  0  0  0  0  0
  -12.2587  -34.4496   25.1133 C   0  0  0  0  0  0  0  0  0  0  0  0
  -12.2072  -35.8013   24.7898 C   0  0  0  0  0  0  0  0  0  0  0  0
  -13.0962  -36.6575   25.4317 C   0  0  0  0  0  0  0  0  0  0  0  0
  -13.0967  -38.0300   25.2877 N   0  0  0  0  0  0  0  0  0  0  0  0
  -14.0503  -38.5391   26.0255 C   0  0  0  0  0  0  0  0  0  0  0  0
  -14.9853  -37.4248   26.9273 S   0  0  0  0  0  0  0  0  0  0  0  0
  -14.0434  -36.1177   26.3120 C   0  0  0  0  0  0  0  0  0  0  0  0
  -14.1332  -34.7311   26.6225 C   0  0  0  0  0  0  0  0  0  0  0  0
  -12.4374  -29.9398   26.5247 N   0  0  0  0  0  0  0  0  0  0  0  0
  -10.7349  -29.2059   27.1975 C   0  0  0  0  0  0  0  0  0  0  0  0
  -10.4319  -27.8988   28.0167 C   0  0  0  0  0  0  0  0  0  0  0  0
  -10.2521  -26.3933   27.3725 C   0  0  0  0  0  0  0  0  0  0  0  0
   -9.6363  -24.9597   28.5583 C   0  0  0  0  0  0  0  0  0  0  0  0
  -10.1581  -23.7088   28.8987 C   0  0  0  0  0  0  0  0  0  0  0  0
  -10.3113  -23.8442   30.7197 N   0  0  0  0  0  0  0  0  0  0  0  0
   -9.1350  -24.5969   31.2452 C   0  0  0  0  0  0  0  0  0  0  0  0
   -8.5706  -25.0404   30.0222 N   0  0  0  0  0  0  0  0  0  0  0  0
  -11.7380  -26.6380   26.4788 C   0  0  0  0  0  0  0  0  0  0  0  0
  -12.1844  -28.1411   25.7475 C   0  0  0  0  0  0  0  0  0  0  0  0
  -13.1328  -32.9921   27.0949 H   0  0  0  0  0  0  0  0  0  0  0  0
  -11.4798  -33.8356   24.6587 H   0  0  0  0  0  0  0  0  0  0  0  0
  -11.4646  -36.1863   24.0986 H   0  0  0  0  0  0  0  0  0  0  0  0
  -14.2444  -39.6034   26.0646 H   0  0  0  0  0  0  0  0  0  0  0  0
  -14.8843  -34.3692   27.3179 H   0  0  0  0  0  0  0  0  0  0  0  0
  -10.0677  -30.0190   27.4903 H   0  0  0  0  0  0  0  0  0  0  0  0
  -10.1384  -28.7536   26.3962 H   0  0  0  0  0  0  0  0  0  0  0  0
  -11.2268  -27.9314   28.7461 H   0  0  0  0  0  0  0  0  0  0  0  0
   -9.5113  -28.1693   28.5110 H   0  0  0  0  0  0  0  0  0  0  0  0
   -9.7330  -26.1325   26.4589 H   0  0  0  0  0  0  0  0  0  0  0  0
  -10.8767  -22.9675   28.5507 H   0  0  0  0  0  0  0  0  0  0  0  0
  -10.9794  -23.2478   31.2090 H   0  0  0  0  0  0  0  0  0  0  0  0
   -8.9282  -24.7093   32.2875 H   0  0  0  0  0  0  0  0  0  0  0  0
  -11.6026  -25.9416   25.6620 H   0  0  0  0  0  0  0  0  0  0  0  0
  -12.7003  -26.2890   26.8810 H   0  0  0  0  0  0  0  0  0  0  0  0
  -13.1623  -27.7258   25.4640 H   0  0  0  0  0  0  0  0  0  0  0  0
  -11.4012  -28.0098   25.0377 H   0  0  0  0  0  0  0  0  0  0  0  0
  1  2  2  0
  2  3  1  0
  3  4  1  0
  4  5  2  0
  5  6  1  0
  6  7  2  0
  7  8  1  0
  8  9  2  0
  9 10  1  0
 10 11  1  0
 11 12  2  0
  2 13  1  0
 13 14  1  0
 14 15  1  0
 15 16  1  0
 16 17  1  0
 17 18  2  0
 18 19  1  0
 19 20  1  0
 20 21  2  0
 16 22  1  0
 22 23  1  0
 12  4  1  0
 23 13  1  0
 11  7  1  0
 21 17  1  0
  3 24  1  0
  5 25  1  0
  6 26  1  0
  9 27  1  0
 12 28  1  0
 14 29  1  0
 14 30  1  0
 15 31  1  0
 15 32  1  0
 16 33  1  0
 18 34  1  0
 19 35  1  0
 20 36  1  0
 22 37  1  0
 22 38  1  0
 23 39  1  0
 23 40  1  0
M  END
>  <Energy>  (272) 
750.83042288995171

>  <compound_id>  (272) 
12530

>  <target_id>  (272) 
1

>  <reference_id>  (272) 
68

>  <inspiration_ids>  (272) 
[115, 68]

>  <energy_score>  (272) 
715.2484969664765

>  <distance_score>  (272) 
4.599656899211749

>  <path>  (272) 
/opt/xchem-fragalysis-2/maxwin/BulkDock/SCRATCH/511014/C12530-P68/C12530-P68.minimised.mol

>  <scratch_subdir>  (272) 
/opt/xchem-fragalysis-2/maxwin/BulkDock/SCRATCH/511014/C12530-P68

>  <fragmenstein_runtime>  (272) 
10.052810668945312

>  <fragmenstein_outcome>  (272) 
too moved

>  <fragmenstein_mode>  (272) 
expansion

>  <fragmenstein_error>  (272) 


$$$$
C12531-P115
     RDKit          3D

 35 38  0  0  0  0  0  0  0  0999 V2000
  -10.5846  -30.8244   26.6847 O   0  0  0  0  0  0  0  0  0  0  0  0
  -10.4412  -30.3317   25.6186 C   0  0  0  0  0  0  0  0  0  0  0  0
  -10.5028  -28.7888   25.1707 N   0  0  0  0  0  0  0  0  0  0  0  0
  -10.8774  -27.4863   26.0053 C   0  0  0  0  0  0  0  0  0  0  0  0
  -11.2996  -26.3709   25.2960 C   0  0  0  0  0  0  0  0  0  0  0  0
  -11.4773  -25.0823   25.8422 C   0  0  0  0  0  0  0  0  0  0  0  0
  -11.2846  -24.8709   27.1914 C   0  0  0  0  0  0  0  0  0  0  0  0
  -11.1243  -25.9742   28.0071 C   0  0  0  0  0  0  0  0  0  0  0  0
  -10.9309  -25.7848   29.4524 C   0  0  0  0  0  0  0  0  0  0  0  0
  -11.2757  -24.7512   30.3080 C   0  0  0  0  0  0  0  0  0  0  0  0
  -10.7446  -24.9181   31.5632 N   0  0  0  0  0  0  0  0  0  0  0  0
  -10.0469  -26.0230   31.4901 C   0  0  0  0  0  0  0  0  0  0  0  0
  -10.1401  -26.5826   30.2486 N   0  0  0  0  0  0  0  0  0  0  0  0
  -11.1164  -27.2533   27.3841 C   0  0  0  0  0  0  0  0  0  0  0  0
  -10.2770  -31.4577   24.5201 C   0  0  0  0  0  0  0  0  0  0  0  0
  -11.1589  -32.5591   24.6823 C   0  0  0  0  0  0  0  0  0  0  0  0
  -10.9000  -33.8605   24.1797 C   0  0  0  0  0  0  0  0  0  0  0  0
   -9.7296  -34.1019   23.4427 C   0  0  0  0  0  0  0  0  0  0  0  0
   -9.2450  -35.3490   23.0515 N   0  0  0  0  0  0  0  0  0  0  0  0
   -8.1472  -35.1870   22.3495 C   0  0  0  0  0  0  0  0  0  0  0  0
   -7.6698  -33.5646   22.0677 S   0  0  0  0  0  0  0  0  0  0  0  0
   -8.9470  -32.9911   23.1037 C   0  0  0  0  0  0  0  0  0  0  0  0
   -9.2051  -31.6660   23.6299 C   0  0  0  0  0  0  0  0  0  0  0  0
  -10.4163  -28.7229   24.1620 H   0  0  0  0  0  0  0  0  0  0  0  0
  -11.6978  -26.5374   24.3175 H   0  0  0  0  0  0  0  0  0  0  0  0
  -11.7680  -24.2369   25.2257 H   0  0  0  0  0  0  0  0  0  0  0  0
  -11.3479  -23.8613   27.5902 H   0  0  0  0  0  0  0  0  0  0  0  0
  -11.8631  -23.8732   30.0703 H   0  0  0  0  0  0  0  0  0  0  0  0
   -9.4557  -26.4598   32.2842 H   0  0  0  0  0  0  0  0  0  0  0  0
   -9.6300  -27.3959   29.9448 H   0  0  0  0  0  0  0  0  0  0  0  0
  -11.3622  -28.0802   28.0384 H   0  0  0  0  0  0  0  0  0  0  0  0
  -12.0182  -32.4445   25.3441 H   0  0  0  0  0  0  0  0  0  0  0  0
  -11.5542  -34.6873   24.4394 H   0  0  0  0  0  0  0  0  0  0  0  0
   -7.5882  -36.0175   21.9396 H   0  0  0  0  0  0  0  0  0  0  0  0
   -8.4741  -30.8800   23.4539 H   0  0  0  0  0  0  0  0  0  0  0  0
  1  2  2  0
  2  3  1  0
  3  4  1  0
  4  5  2  0
  5  6  1  0
  6  7  2  0
  7  8  1  0
  8  9  1  0
  9 10  2  0
 10 11  1  0
 11 12  2  0
 12 13  1  0
  8 14  2  0
  2 15  1  0
 15 16  2  0
 16 17  1  0
 17 18  2  0
 18 19  1  0
 19 20  2  0
 20 21  1  0
 21 22  1  0
 22 23  2  0
 14  4  1  0
 23 15  1  0
 13  9  1  0
 22 18  1  0
  3 24  1  0
  5 25  1  0
  6 26  1  0
  7 27  1  0
 10 28  1  0
 12 29  1  0
 13 30  1  0
 14 31  1  0
 16 32  1  0
 17 33  1  0
 20 34  1  0
 23 35  1  0
M  END
>  <Energy>  (273) 
108.45580875826424

>  <compound_id>  (273) 
12531

>  <target_id>  (273) 
1

>  <reference_id>  (273) 
115

>  <inspiration_ids>  (273) 
[115, 68]

>  <energy_score>  (273) 
-17.665169724080897

>  <distance_score>  (273) 
2.8081216367250197

>  <path>  (273) 
/opt/xchem-fragalysis-2/maxwin/BulkDock/SCRATCH/511014/C12531-P115/C12531-P115.minimised.mol

>  <scratch_subdir>  (273) 
/opt/xchem-fragalysis-2/maxwin/BulkDock/SCRATCH/511014/C12531-P115

>  <fragmenstein_runtime>  (273) 
3.072373867034912

>  <fragmenstein_outcome>  (273) 
too moved

>  <fragmenstein_mode>  (273) 
expansion

>  <fragmenstein_error>  (273) 


$$$$
C12531-P68
     RDKit          3D

 35 38  0  0  0  0  0  0  0  0999 V2000
  -14.7566  -33.6141   22.8939 O   0  0  0  0  0  0  0  0  0  0  0  0
  -14.1908  -33.4737   23.9123 C   0  0  0  0  0  0  0  0  0  0  0  0
  -14.4940  -32.5145   25.1211 N   0  0  0  0  0  0  0  0  0  0  0  0
  -15.4877  -31.4836   25.2686 C   0  0  0  0  0  0  0  0  0  0  0  0
  -16.7246  -31.4603   24.6548 C   0  0  0  0  0  0  0  0  0  0  0  0
  -17.4895  -30.2581   24.6415 C   0  0  0  0  0  0  0  0  0  0  0  0
  -16.9693  -28.9969   25.0583 C   0  0  0  0  0  0  0  0  0  0  0  0
  -15.6497  -28.9102   25.5330 C   0  0  0  0  0  0  0  0  0  0  0  0
  -14.8690  -27.4771   25.6296 C   0  0  0  0  0  0  0  0  0  0  0  0
  -15.2699  -26.1825   25.3660 C   0  0  0  0  0  0  0  0  0  0  0  0
  -14.2684  -25.2556   25.6302 N   0  0  0  0  0  0  0  0  0  0  0  0
  -13.2263  -25.9154   26.0228 C   0  0  0  0  0  0  0  0  0  0  0  0
  -13.5219  -27.2180   25.9366 N   0  0  0  0  0  0  0  0  0  0  0  0
  -15.0600  -30.2546   25.8278 C   0  0  0  0  0  0  0  0  0  0  0  0
  -12.8795  -34.2790   24.0621 C   0  0  0  0  0  0  0  0  0  0  0  0
  -12.7253  -35.1848   25.1062 C   0  0  0  0  0  0  0  0  0  0  0  0
  -11.5955  -36.0397   25.1833 C   0  0  0  0  0  0  0  0  0  0  0  0
  -10.5641  -35.9936   24.2257 C   0  0  0  0  0  0  0  0  0  0  0  0
   -9.4019  -36.7534   24.2386 N   0  0  0  0  0  0  0  0  0  0  0  0
   -8.7008  -36.5023   23.1586 C   0  0  0  0  0  0  0  0  0  0  0  0
   -9.3978  -35.3739   22.0751 S   0  0  0  0  0  0  0  0  0  0  0  0
  -10.7325  -35.1246   23.1465 C   0  0  0  0  0  0  0  0  0  0  0  0
  -11.8774  -34.2681   23.0474 C   0  0  0  0  0  0  0  0  0  0  0  0
  -13.7545  -32.5915   25.8091 H   0  0  0  0  0  0  0  0  0  0  0  0
  -17.1193  -32.3520   24.1727 H   0  0  0  0  0  0  0  0  0  0  0  0
  -18.4832  -30.2846   24.1919 H   0  0  0  0  0  0  0  0  0  0  0  0
  -17.5632  -28.1026   24.8862 H   0  0  0  0  0  0  0  0  0  0  0  0
  -16.2437  -25.8469   25.0276 H   0  0  0  0  0  0  0  0  0  0  0  0
  -12.2651  -25.4994   26.2868 H   0  0  0  0  0  0  0  0  0  0  0  0
  -12.8623  -27.9287   26.2055 H   0  0  0  0  0  0  0  0  0  0  0  0
  -14.0955  -30.3141   26.3208 H   0  0  0  0  0  0  0  0  0  0  0  0
  -13.5128  -35.2930   25.8503 H   0  0  0  0  0  0  0  0  0  0  0  0
  -11.5151  -36.7726   25.9820 H   0  0  0  0  0  0  0  0  0  0  0  0
   -7.7527  -36.9848   22.9570 H   0  0  0  0  0  0  0  0  0  0  0  0
  -12.0032  -33.6357   22.1707 H   0  0  0  0  0  0  0  0  0  0  0  0
  1  2  2  0
  2  3  1  0
  3  4  1  0
  4  5  2  0
  5  6  1  0
  6  7  2  0
  7  8  1  0
  8  9  1  0
  9 10  2  0
 10 11  1  0
 11 12  2  0
 12 13  1  0
  8 14  2  0
  2 15  1  0
 15 16  2  0
 16 17  1  0
 17 18  2  0
 18 19  1  0
 19 20  2  0
 20 21  1  0
 21 22  1  0
 22 23  2  0
 14  4  1  0
 23 15  1  0
 13  9  1  0
 22 18  1  0
  3 24  1  0
  5 25  1  0
  6 26  1  0
  7 27  1  0
 10 28  1  0
 12 29  1  0
 13 30  1  0
 14 31  1  0
 16 32  1  0
 17 33  1  0
 20 34  1  0
 23 35  1  0
M  END
>  <Energy>  (274) 
90.058770210839981

>  <compound_id>  (274) 
12531

>  <target_id>  (274) 
1

>  <reference_id>  (274) 
68

>  <inspiration_ids>  (274) 
[115, 68]

>  <energy_score>  (274) 
-36.06220827150395

>  <distance_score>  (274) 
4.572136050720405

>  <path>  (274) 
/opt/xchem-fragalysis-2/maxwin/BulkDock/SCRATCH/511014/C12531-P68/C12531-P68.minimised.mol

>  <scratch_subdir>  (274) 
/opt/xchem-fragalysis-2/maxwin/BulkDock/SCRATCH/511014/C12531-P68

>  <fragmenstein_runtime>  (274) 
15.513229131698608

>  <fragmenstein_outcome>  (274) 
too moved

>  <fragmenstein_mode>  (274) 
expansion

>  <fragmenstein_error>  (274) 


$$$$
C12532-P115
     RDKit          3D

 40 42  0  0  0  0  0  0  0  0999 V2000
  -10.1448  -27.1276   30.7375 C   0  0  0  0  0  0  0  0  0  0  0  0
  -10.6612  -25.9327   30.0786 C   0  0  0  0  0  0  0  0  0  0  0  0
  -11.1206  -24.9173   30.7798 N   0  0  0  0  0  0  0  0  0  0  0  0
  -11.5382  -24.0050   29.8721 C   0  0  0  0  0  0  0  0  0  0  0  0
  -11.3361  -24.4675   28.5988 C   0  0  0  0  0  0  0  0  0  0  0  0
  -10.7936  -25.7229   28.7173 N   0  0  0  0  0  0  0  0  0  0  0  0
  -10.2252  -26.4097   27.5442 C   0  0  0  0  0  0  0  0  0  0  0  0
  -11.1145  -27.4032   26.6995 C   0  0  0  0  0  0  0  0  0  0  0  0
  -10.4811  -28.4081   25.5568 N   0  0  0  0  0  0  0  0  0  0  0  0
  -10.2917  -30.0284   25.5634 C   0  0  0  0  0  0  0  0  0  0  0  0
  -10.4975  -30.8216   26.4250 O   0  0  0  0  0  0  0  0  0  0  0  0
   -9.7837  -30.6145   24.1901 C   0  0  0  0  0  0  0  0  0  0  0  0
  -10.6798  -31.7900   23.6056 C   0  0  0  0  0  0  0  0  0  0  0  0
  -10.1313  -33.2216   23.5743 C   0  0  0  0  0  0  0  0  0  0  0  0
  -10.7175  -34.2225   24.3610 C   0  0  0  0  0  0  0  0  0  0  0  0
  -10.1884  -35.5248   24.4195 C   0  0  0  0  0  0  0  0  0  0  0  0
   -9.0700  -35.8672   23.6365 C   0  0  0  0  0  0  0  0  0  0  0  0
   -8.4078  -37.0888   23.6418 N   0  0  0  0  0  0  0  0  0  0  0  0
   -7.4328  -37.0568   22.7627 C   0  0  0  0  0  0  0  0  0  0  0  0
   -7.2463  -35.6006   21.8841 S   0  0  0  0  0  0  0  0  0  0  0  0
   -8.5499  -34.8993   22.7738 C   0  0  0  0  0  0  0  0  0  0  0  0
   -9.0629  -33.5795   22.7300 C   0  0  0  0  0  0  0  0  0  0  0  0
  -10.9271  -27.8814   30.7495 H   0  0  0  0  0  0  0  0  0  0  0  0
   -9.8462  -26.9182   31.7693 H   0  0  0  0  0  0  0  0  0  0  0  0
   -9.2881  -27.5159   30.2215 H   0  0  0  0  0  0  0  0  0  0  0  0
  -11.9536  -23.0514   30.1670 H   0  0  0  0  0  0  0  0  0  0  0  0
  -11.5276  -23.9969   27.6429 H   0  0  0  0  0  0  0  0  0  0  0  0
   -9.2574  -26.7991   27.8519 H   0  0  0  0  0  0  0  0  0  0  0  0
  -10.0377  -25.5685   26.8831 H   0  0  0  0  0  0  0  0  0  0  0  0
  -11.6627  -28.0182   27.4226 H   0  0  0  0  0  0  0  0  0  0  0  0
  -11.8225  -26.7792   26.1400 H   0  0  0  0  0  0  0  0  0  0  0  0
  -10.2946  -28.0529   24.6476 H   0  0  0  0  0  0  0  0  0  0  0  0
   -9.6581  -29.8226   23.4506 H   0  0  0  0  0  0  0  0  0  0  0  0
   -8.7850  -31.0054   24.3470 H   0  0  0  0  0  0  0  0  0  0  0  0
  -10.9071  -31.5449   22.5591 H   0  0  0  0  0  0  0  0  0  0  0  0
  -11.6458  -31.7943   24.1257 H   0  0  0  0  0  0  0  0  0  0  0  0
  -11.5690  -33.9836   24.9965 H   0  0  0  0  0  0  0  0  0  0  0  0
  -10.6247  -36.2644   25.0838 H   0  0  0  0  0  0  0  0  0  0  0  0
   -6.7839  -37.9051   22.5892 H   0  0  0  0  0  0  0  0  0  0  0  0
   -8.6002  -32.8400   22.0794 H   0  0  0  0  0  0  0  0  0  0  0  0
  1  2  1  0
  2  3  2  0
  3  4  1  0
  4  5  2  0
  5  6  1  0
  6  7  1  0
  7  8  1  0
  8  9  1  0
  9 10  1  0
 10 11  2  0
 10 12  1  0
 12 13  1  0
 13 14  1  0
 14 15  2  0
 15 16  1  0
 16 17  2  0
 17 18  1  0
 18 19  2  0
 19 20  1  0
 20 21  1  0
 21 22  2  0
  6  2  1  0
 22 14  1  0
 21 17  1  0
  1 23  1  0
  1 24  1  0
  1 25  1  0
  4 26  1  0
  5 27  1  0
  7 28  1  0
  7 29  1  0
  8 30  1  0
  8 31  1  0
  9 32  1  0
 12 33  1  0
 12 34  1  0
 13 35  1  0
 13 36  1  0
 15 37  1  0
 16 38  1  0
 19 39  1  0
 22 40  1  0
M  END
>  <Energy>  (275) 
69.412773139665561

>  <compound_id>  (275) 
12532

>  <target_id>  (275) 
1

>  <reference_id>  (275) 
115

>  <inspiration_ids>  (275) 
[115, 68]

>  <energy_score>  (275) 
19.381316911721115

>  <distance_score>  (275) 
1.8402307300178855

>  <path>  (275) 
/opt/xchem-fragalysis-2/maxwin/BulkDock/SCRATCH/511014/C12532-P115/C12532-P115.minimised.mol

>  <scratch_subdir>  (275) 
/opt/xchem-fragalysis-2/maxwin/BulkDock/SCRATCH/511014/C12532-P115

>  <fragmenstein_runtime>  (275) 
2.9354617595672607

>  <fragmenstein_outcome>  (275) 
too moved

>  <fragmenstein_mode>  (275) 
expansion

>  <fragmenstein_error>  (275) 


$$$$
C12532-P68
     RDKit          3D

 40 42  0  0  0  0  0  0  0  0999 V2000
  -11.1089  -22.2610   28.3515 C   0  0  0  0  0  0  0  0  0  0  0  0
  -11.7257  -22.4775   27.0369 C   0  0  0  0  0  0  0  0  0  0  0  0
  -12.3254  -21.5566   26.2952 N   0  0  0  0  0  0  0  0  0  0  0  0
  -13.0808  -22.2443   25.3963 C   0  0  0  0  0  0  0  0  0  0  0  0
  -12.9379  -23.5951   25.6097 C   0  0  0  0  0  0  0  0  0  0  0  0
  -11.8267  -23.7189   26.4292 N   0  0  0  0  0  0  0  0  0  0  0  0
  -10.7828  -24.7641   26.4446 C   0  0  0  0  0  0  0  0  0  0  0  0
  -11.1236  -26.2819   26.0565 C   0  0  0  0  0  0  0  0  0  0  0  0
  -11.7365  -27.6018   26.2205 N   0  0  0  0  0  0  0  0  0  0  0  0
  -11.2515  -28.8458   26.9824 C   0  0  0  0  0  0  0  0  0  0  0  0
  -10.2970  -28.9949   27.6844 O   0  0  0  0  0  0  0  0  0  0  0  0
  -12.5509  -30.4127   26.4337 C   0  0  0  0  0  0  0  0  0  0  0  0
  -13.1842  -31.9458   25.9129 C   0  0  0  0  0  0  0  0  0  0  0  0
  -12.6699  -33.2173   25.1763 C   0  0  0  0  0  0  0  0  0  0  0  0
  -13.6067  -34.2700   25.0960 C   0  0  0  0  0  0  0  0  0  0  0  0
  -13.2885  -35.5549   24.6095 C   0  0  0  0  0  0  0  0  0  0  0  0
  -11.9837  -35.8418   24.1769 C   0  0  0  0  0  0  0  0  0  0  0  0
  -11.5069  -37.0632   23.7276 N   0  0  0  0  0  0  0  0  0  0  0  0
  -10.2313  -36.9557   23.4305 C   0  0  0  0  0  0  0  0  0  0  0  0
   -9.5378  -35.4060   23.6332 S   0  0  0  0  0  0  0  0  0  0  0  0
  -11.0542  -34.8105   24.2093 C   0  0  0  0  0  0  0  0  0  0  0  0
  -11.3872  -33.5151   24.6840 C   0  0  0  0  0  0  0  0  0  0  0  0
  -10.4926  -21.3877   28.3416 H   0  0  0  0  0  0  0  0  0  0  0  0
  -10.4275  -23.0636   28.6070 H   0  0  0  0  0  0  0  0  0  0  0  0
  -11.8508  -22.0979   29.1345 H   0  0  0  0  0  0  0  0  0  0  0  0
  -13.7494  -21.7352   24.7163 H   0  0  0  0  0  0  0  0  0  0  0  0
  -13.4709  -24.4372   25.1986 H   0  0  0  0  0  0  0  0  0  0  0  0
  -10.0555  -24.4415   25.6957 H   0  0  0  0  0  0  0  0  0  0  0  0
  -10.2072  -24.6742   27.3704 H   0  0  0  0  0  0  0  0  0  0  0  0
  -10.3517  -26.5942   26.7472 H   0  0  0  0  0  0  0  0  0  0  0  0
  -12.1566  -25.9839   26.2273 H   0  0  0  0  0  0  0  0  0  0  0  0
  -12.6250  -27.8007   25.7909 H   0  0  0  0  0  0  0  0  0  0  0  0
  -13.3899  -30.5002   27.1006 H   0  0  0  0  0  0  0  0  0  0  0  0
  -11.7190  -31.1455   26.4659 H   0  0  0  0  0  0  0  0  0  0  0  0
  -14.1562  -31.7099   25.4512 H   0  0  0  0  0  0  0  0  0  0  0  0
  -13.5136  -32.3940   26.8673 H   0  0  0  0  0  0  0  0  0  0  0  0
  -14.6243  -34.1161   25.4588 H   0  0  0  0  0  0  0  0  0  0  0  0
  -14.0407  -36.3380   24.5903 H   0  0  0  0  0  0  0  0  0  0  0  0
   -9.6490  -37.7952   23.0730 H   0  0  0  0  0  0  0  0  0  0  0  0
  -10.5680  -32.8226   24.6848 H   0  0  0  0  0  0  0  0  0  0  0  0
  1  2  1  0
  2  3  2  0
  3  4  1  0
  4  5  2  0
  5  6  1  0
  6  7  1  0
  7  8  1  0
  8  9  1  0
  9 10  1  0
 10 11  2  0
 10 12  1  0
 12 13  1  0
 13 14  1  0
 14 15  2  0
 15 16  1  0
 16 17  2  0
 17 18  1  0
 18 19  2  0
 19 20  1  0
 20 21  1  0
 21 22  2  0
  6  2  1  0
 22 14  1  0
 21 17  1  0
  1 23  1  0
  1 24  1  0
  1 25  1  0
  4 26  1  0
  5 27  1  0
  7 28  1  0
  7 29  1  0
  8 30  1  0
  8 31  1  0
  9 32  1  0
 12 33  1  0
 12 34  1  0
 13 35  1  0
 13 36  1  0
 15 37  1  0
 16 38  1  0
 19 39  1  0
 22 40  1  0
M  END
>  <Energy>  (276) 
312.61254667586178

>  <compound_id>  (276) 
12532

>  <target_id>  (276) 
1

>  <reference_id>  (276) 
68

>  <inspiration_ids>  (276) 
[115, 68]

>  <energy_score>  (276) 
233.42735188194354

>  <distance_score>  (276) 
4.609538872802872

>  <path>  (276) 
/opt/xchem-fragalysis-2/maxwin/BulkDock/SCRATCH/511014/C12532-P68/C12532-P68.minimised.mol

>  <scratch_subdir>  (276) 
/opt/xchem-fragalysis-2/maxwin/BulkDock/SCRATCH/511014/C12532-P68

>  <fragmenstein_runtime>  (276) 
15.774759531021118

>  <fragmenstein_outcome>  (276) 
too moved

>  <fragmenstein_mode>  (276) 
expansion

>  <fragmenstein_error>  (276) 


$$$$
C12531-P115
     RDKit          3D

 35 38  0  0  0  0  0  0  0  0999 V2000
  -10.5846  -30.8244   26.6847 O   0  0  0  0  0  0  0  0  0  0  0  0
  -10.4412  -30.3317   25.6186 C   0  0  0  0  0  0  0  0  0  0  0  0
  -10.5028  -28.7888   25.1707 N   0  0  0  0  0  0  0  0  0  0  0  0
  -10.8774  -27.4863   26.0053 C   0  0  0  0  0  0  0  0  0  0  0  0
  -11.2996  -26.3709   25.2960 C   0  0  0  0  0  0  0  0  0  0  0  0
  -11.4773  -25.0823   25.8422 C   0  0  0  0  0  0  0  0  0  0  0  0
  -11.2846  -24.8709   27.1914 C   0  0  0  0  0  0  0  0  0  0  0  0
  -11.1243  -25.9742   28.0071 C   0  0  0  0  0  0  0  0  0  0  0  0
  -10.9309  -25.7848   29.4524 C   0  0  0  0  0  0  0  0  0  0  0  0
  -11.2757  -24.7512   30.3080 C   0  0  0  0  0  0  0  0  0  0  0  0
  -10.7446  -24.9181   31.5632 N   0  0  0  0  0  0  0  0  0  0  0  0
  -10.0469  -26.0230   31.4901 C   0  0  0  0  0  0  0  0  0  0  0  0
  -10.1401  -26.5826   30.2486 N   0  0  0  0  0  0  0  0  0  0  0  0
  -11.1164  -27.2533   27.3841 C   0  0  0  0  0  0  0  0  0  0  0  0
  -10.2770  -31.4577   24.5201 C   0  0  0  0  0  0  0  0  0  0  0  0
  -11.1589  -32.5591   24.6823 C   0  0  0  0  0  0  0  0  0  0  0  0
  -10.9000  -33.8605   24.1797 C   0  0  0  0  0  0  0  0  0  0  0  0
   -9.7296  -34.1019   23.4427 C   0  0  0  0  0  0  0  0  0  0  0  0
   -9.2450  -35.3490   23.0515 N   0  0  0  0  0  0  0  0  0  0  0  0
   -8.1472  -35.1870   22.3495 C   0  0  0  0  0  0  0  0  0  0  0  0
   -7.6698  -33.5646   22.0677 S   0  0  0  0  0  0  0  0  0  0  0  0
   -8.9470  -32.9911   23.1037 C   0  0  0  0  0  0  0  0  0  0  0  0
   -9.2051  -31.6660   23.6299 C   0  0  0  0  0  0  0  0  0  0  0  0
  -10.4163  -28.7229   24.1620 H   0  0  0  0  0  0  0  0  0  0  0  0
  -11.6978  -26.5374   24.3175 H   0  0  0  0  0  0  0  0  0  0  0  0
  -11.7680  -24.2369   25.2257 H   0  0  0  0  0  0  0  0  0  0  0  0
  -11.3479  -23.8613   27.5902 H   0  0  0  0  0  0  0  0  0  0  0  0
  -11.8631  -23.8732   30.0703 H   0  0  0  0  0  0  0  0  0  0  0  0
   -9.4557  -26.4598   32.2842 H   0  0  0  0  0  0  0  0  0  0  0  0
   -9.6300  -27.3959   29.9448 H   0  0  0  0  0  0  0  0  0  0  0  0
  -11.3622  -28.0802   28.0384 H   0  0  0  0  0  0  0  0  0  0  0  0
  -12.0182  -32.4445   25.3441 H   0  0  0  0  0  0  0  0  0  0  0  0
  -11.5542  -34.6873   24.4394 H   0  0  0  0  0  0  0  0  0  0  0  0
   -7.5882  -36.0175   21.9396 H   0  0  0  0  0  0  0  0  0  0  0  0
   -8.4741  -30.8800   23.4539 H   0  0  0  0  0  0  0  0  0  0  0  0
  1  2  2  0
  2  3  1  0
  3  4  1  0
  4  5  2  0
  5  6  1  0
  6  7  2  0
  7  8  1  0
  8  9  1  0
  9 10  2  0
 10 11  1  0
 11 12  2  0
 12 13  1  0
  8 14  2  0
  2 15  1  0
 15 16  2  0
 16 17  1  0
 17 18  2  0
 18 19  1  0
 19 20  2  0
 20 21  1  0
 21 22  1  0
 22 23  2  0
 14  4  1  0
 23 15  1  0
 13  9  1  0
 22 18  1  0
  3 24  1  0
  5 25  1  0
  6 26  1  0
  7 27  1  0
 10 28  1  0
 12 29  1  0
 13 30  1  0
 14 31  1  0
 16 32  1  0
 17 33  1  0
 20 34  1  0
 23 35  1  0
M  END
>  <Energy>  (277) 
108.45580875826424

>  <compound_id>  (277) 
12531

>  <target_id>  (277) 
1

>  <reference_id>  (277) 
115

>  <inspiration_ids>  (277) 
[115, 68]

>  <energy_score>  (277) 
-17.665169724080897

>  <distance_score>  (277) 
2.8081216367250197

>  <path>  (277) 
/opt/xchem-fragalysis-2/maxwin/BulkDock/SCRATCH/511014/C12531-P115/C12531-P115.minimised.mol

>  <scratch_subdir>  (277) 
/opt/xchem-fragalysis-2/maxwin/BulkDock/SCRATCH/511014/C12531-P115

>  <fragmenstein_runtime>  (277) 
4.436336040496826

>  <fragmenstein_outcome>  (277) 
too moved

>  <fragmenstein_mode>  (277) 
expansion

>  <fragmenstein_error>  (277) 


$$$$
C12531-P68
     RDKit          3D

 35 38  0  0  0  0  0  0  0  0999 V2000
  -14.7566  -33.6141   22.8939 O   0  0  0  0  0  0  0  0  0  0  0  0
  -14.1908  -33.4737   23.9123 C   0  0  0  0  0  0  0  0  0  0  0  0
  -14.4940  -32.5145   25.1211 N   0  0  0  0  0  0  0  0  0  0  0  0
  -15.4877  -31.4836   25.2686 C   0  0  0  0  0  0  0  0  0  0  0  0
  -16.7246  -31.4603   24.6548 C   0  0  0  0  0  0  0  0  0  0  0  0
  -17.4895  -30.2581   24.6415 C   0  0  0  0  0  0  0  0  0  0  0  0
  -16.9693  -28.9969   25.0583 C   0  0  0  0  0  0  0  0  0  0  0  0
  -15.6497  -28.9102   25.5330 C   0  0  0  0  0  0  0  0  0  0  0  0
  -14.8690  -27.4771   25.6296 C   0  0  0  0  0  0  0  0  0  0  0  0
  -15.2699  -26.1825   25.3660 C   0  0  0  0  0  0  0  0  0  0  0  0
  -14.2684  -25.2556   25.6302 N   0  0  0  0  0  0  0  0  0  0  0  0
  -13.2263  -25.9154   26.0228 C   0  0  0  0  0  0  0  0  0  0  0  0
  -13.5219  -27.2180   25.9366 N   0  0  0  0  0  0  0  0  0  0  0  0
  -15.0600  -30.2546   25.8278 C   0  0  0  0  0  0  0  0  0  0  0  0
  -12.8795  -34.2790   24.0621 C   0  0  0  0  0  0  0  0  0  0  0  0
  -12.7253  -35.1848   25.1062 C   0  0  0  0  0  0  0  0  0  0  0  0
  -11.5955  -36.0397   25.1833 C   0  0  0  0  0  0  0  0  0  0  0  0
  -10.5641  -35.9936   24.2257 C   0  0  0  0  0  0  0  0  0  0  0  0
   -9.4019  -36.7534   24.2386 N   0  0  0  0  0  0  0  0  0  0  0  0
   -8.7008  -36.5023   23.1586 C   0  0  0  0  0  0  0  0  0  0  0  0
   -9.3978  -35.3739   22.0751 S   0  0  0  0  0  0  0  0  0  0  0  0
  -10.7325  -35.1246   23.1465 C   0  0  0  0  0  0  0  0  0  0  0  0
  -11.8774  -34.2681   23.0474 C   0  0  0  0  0  0  0  0  0  0  0  0
  -13.7545  -32.5915   25.8091 H   0  0  0  0  0  0  0  0  0  0  0  0
  -17.1193  -32.3520   24.1727 H   0  0  0  0  0  0  0  0  0  0  0  0
  -18.4832  -30.2846   24.1919 H   0  0  0  0  0  0  0  0  0  0  0  0
  -17.5632  -28.1026   24.8862 H   0  0  0  0  0  0  0  0  0  0  0  0
  -16.2437  -25.8469   25.0276 H   0  0  0  0  0  0  0  0  0  0  0  0
  -12.2651  -25.4994   26.2868 H   0  0  0  0  0  0  0  0  0  0  0  0
  -12.8623  -27.9287   26.2055 H   0  0  0  0  0  0  0  0  0  0  0  0
  -14.0955  -30.3141   26.3208 H   0  0  0  0  0  0  0  0  0  0  0  0
  -13.5128  -35.2930   25.8503 H   0  0  0  0  0  0  0  0  0  0  0  0
  -11.5151  -36.7726   25.9820 H   0  0  0  0  0  0  0  0  0  0  0  0
   -7.7527  -36.9848   22.9570 H   0  0  0  0  0  0  0  0  0  0  0  0
  -12.0032  -33.6357   22.1707 H   0  0  0  0  0  0  0  0  0  0  0  0
  1  2  2  0
  2  3  1  0
  3  4  1  0
  4  5  2  0
  5  6  1  0
  6  7  2  0
  7  8  1  0
  8  9  1  0
  9 10  2  0
 10 11  1  0
 11 12  2  0
 12 13  1  0
  8 14  2  0
  2 15  1  0
 15 16  2  0
 16 17  1  0
 17 18  2  0
 18 19  1  0
 19 20  2  0
 20 21  1  0
 21 22  1  0
 22 23  2  0
 14  4  1  0
 23 15  1  0
 13  9  1  0
 22 18  1  0
  3 24  1  0
  5 25  1  0
  6 26  1  0
  7 27  1  0
 10 28  1  0
 12 29  1  0
 13 30  1  0
 14 31  1  0
 16 32  1  0
 17 33  1  0
 20 34  1  0
 23 35  1  0
M  END
>  <Energy>  (278) 
90.058770210839981

>  <compound_id>  (278) 
12531

>  <target_id>  (278) 
1

>  <reference_id>  (278) 
68

>  <inspiration_ids>  (278) 
[115, 68]

>  <energy_score>  (278) 
-36.06220827150395

>  <distance_score>  (278) 
4.572136050720405

>  <path>  (278) 
/opt/xchem-fragalysis-2/maxwin/BulkDock/SCRATCH/511014/C12531-P68/C12531-P68.minimised.mol

>  <scratch_subdir>  (278) 
/opt/xchem-fragalysis-2/maxwin/BulkDock/SCRATCH/511014/C12531-P68

>  <fragmenstein_runtime>  (278) 
11.793235540390015

>  <fragmenstein_outcome>  (278) 
too moved

>  <fragmenstein_mode>  (278) 
expansion

>  <fragmenstein_error>  (278) 


$$$$
C12533-P115
     RDKit          3D

 38 41  0  0  0  0  0  0  0  0999 V2000
  -14.8363  -31.3233   28.0547 O   0  0  0  0  0  0  0  0  0  0  0  0
  -13.7784  -31.3175   27.5508 C   0  0  0  0  0  0  0  0  0  0  0  0
  -13.4468  -32.4987   26.4209 C   0  0  0  0  0  0  0  0  0  0  0  0
  -12.3556  -32.5014   25.2296 C   0  0  0  0  0  0  0  0  0  0  0  0
  -11.5868  -33.7814   24.7681 C   0  0  0  0  0  0  0  0  0  0  0  0
  -11.6911  -35.0126   25.4200 C   0  0  0  0  0  0  0  0  0  0  0  0
  -10.8014  -36.0775   25.1539 C   0  0  0  0  0  0  0  0  0  0  0  0
   -9.7871  -35.9551   24.1843 C   0  0  0  0  0  0  0  0  0  0  0  0
   -8.8063  -36.8989   23.8964 N   0  0  0  0  0  0  0  0  0  0  0  0
   -8.0476  -36.4525   22.9215 C   0  0  0  0  0  0  0  0  0  0  0  0
   -8.4583  -34.9145   22.2866 S   0  0  0  0  0  0  0  0  0  0  0  0
   -9.7359  -34.7703   23.4477 C   0  0  0  0  0  0  0  0  0  0  0  0
  -10.6211  -33.6856   23.7219 C   0  0  0  0  0  0  0  0  0  0  0  0
  -12.6071  -30.3019   27.6787 N   0  0  0  0  0  0  0  0  0  0  0  0
  -12.5340  -29.0717   28.3571 C   0  0  0  0  0  0  0  0  0  0  0  0
  -11.8224  -28.1142   27.7799 N   0  0  0  0  0  0  0  0  0  0  0  0
  -11.7289  -27.0487   28.5855 C   0  0  0  0  0  0  0  0  0  0  0  0
  -10.8993  -25.8066   28.2517 C   0  0  0  0  0  0  0  0  0  0  0  0
   -9.9191  -25.3189   29.2772 C   0  0  0  0  0  0  0  0  0  0  0  0
  -11.1274  -24.4942   28.9443 C   0  0  0  0  0  0  0  0  0  0  0  0
  -12.2686  -27.3953   29.7748 C   0  0  0  0  0  0  0  0  0  0  0  0
  -12.9699  -28.5818   29.5644 N   0  0  0  0  0  0  0  0  0  0  0  0
  -13.4286  -33.4348   26.9837 H   0  0  0  0  0  0  0  0  0  0  0  0
  -14.4039  -32.5589   25.8772 H   0  0  0  0  0  0  0  0  0  0  0  0
  -11.5796  -31.7735   25.4861 H   0  0  0  0  0  0  0  0  0  0  0  0
  -12.8608  -32.1263   24.3318 H   0  0  0  0  0  0  0  0  0  0  0  0
  -12.4218  -35.1715   26.2097 H   0  0  0  0  0  0  0  0  0  0  0  0
  -10.8757  -36.9992   25.7245 H   0  0  0  0  0  0  0  0  0  0  0  0
   -7.2157  -37.0200   22.5257 H   0  0  0  0  0  0  0  0  0  0  0  0
  -10.4983  -32.7502   23.1765 H   0  0  0  0  0  0  0  0  0  0  0  0
  -11.8677  -30.5578   27.0414 H   0  0  0  0  0  0  0  0  0  0  0  0
  -10.6011  -25.7525   27.2105 H   0  0  0  0  0  0  0  0  0  0  0  0
   -8.9572  -25.0137   28.9074 H   0  0  0  0  0  0  0  0  0  0  0  0
   -9.8822  -25.7945   30.2499 H   0  0  0  0  0  0  0  0  0  0  0  0
  -11.9085  -24.4150   29.6891 H   0  0  0  0  0  0  0  0  0  0  0  0
  -10.9984  -23.5931   28.3545 H   0  0  0  0  0  0  0  0  0  0  0  0
  -12.1251  -26.8761   30.7039 H   0  0  0  0  0  0  0  0  0  0  0  0
  -13.4740  -29.1281   30.2464 H   0  0  0  0  0  0  0  0  0  0  0  0
  1  2  2  0
  2  3  1  0
  3  4  1  0
  4  5  1  0
  5  6  2  0
  6  7  1  0
  7  8  2  0
  8  9  1  0
  9 10  2  0
 10 11  1  0
 11 12  1  0
 12 13  2  0
  2 14  1  0
 14 15  1  0
 15 16  2  0
 16 17  1  0
 17 18  1  0
 18 19  1  0
 19 20  1  0
 17 21  2  0
 21 22  1  0
 13  5  1  0
 22 15  1  0
 12  8  1  0
 20 18  1  0
  3 23  1  0
  3 24  1  0
  4 25  1  0
  4 26  1  0
  6 27  1  0
  7 28  1  0
 10 29  1  0
 13 30  1  0
 14 31  1  0
 18 32  1  0
 19 33  1  0
 19 34  1  0
 20 35  1  0
 20 36  1  0
 21 37  1  0
 22 38  1  0
M  END
>  <Energy>  (279) 
52.33479832661952

>  <compound_id>  (279) 
12533

>  <target_id>  (279) 
1

>  <reference_id>  (279) 
115

>  <inspiration_ids>  (279) 
[115, 68]

>  <energy_score>  (279) 
-30.70294316179141

>  <distance_score>  (279) 
3.022256314685542

>  <path>  (279) 
/opt/xchem-fragalysis-2/maxwin/BulkDock/SCRATCH/511014/C12533-P115/C12533-P115.minimised.mol

>  <scratch_subdir>  (279) 
/opt/xchem-fragalysis-2/maxwin/BulkDock/SCRATCH/511014/C12533-P115

>  <fragmenstein_runtime>  (279) 
2.637953042984009

>  <fragmenstein_outcome>  (279) 
too moved

>  <fragmenstein_mode>  (279) 
expansion

>  <fragmenstein_error>  (279) 


$$$$
C12533-P68
     RDKit          3D

 38 41  0  0  0  0  0  0  0  0999 V2000
   -8.9953  -27.3650   23.5784 O   0  0  0  0  0  0  0  0  0  0  0  0
   -9.2311  -28.1922   24.3116 C   0  0  0  0  0  0  0  0  0  0  0  0
   -8.7470  -29.9831   23.4319 C   0  0  0  0  0  0  0  0  0  0  0  0
  -10.0882  -31.3064   22.7957 C   0  0  0  0  0  0  0  0  0  0  0  0
  -10.1069  -32.8649   22.9620 C   0  0  0  0  0  0  0  0  0  0  0  0
  -10.3114  -33.5200   24.1743 C   0  0  0  0  0  0  0  0  0  0  0  0
  -10.2085  -34.9094   24.3492 C   0  0  0  0  0  0  0  0  0  0  0  0
  -10.0265  -35.7256   23.2333 C   0  0  0  0  0  0  0  0  0  0  0  0
   -9.8836  -37.1004   23.2483 N   0  0  0  0  0  0  0  0  0  0  0  0
   -9.8141  -37.5385   22.0143 C   0  0  0  0  0  0  0  0  0  0  0  0
   -9.9823  -36.3614   20.7855 S   0  0  0  0  0  0  0  0  0  0  0  0
  -10.0424  -35.1171   21.9800 C   0  0  0  0  0  0  0  0  0  0  0  0
  -10.1159  -33.7061   21.8365 C   0  0  0  0  0  0  0  0  0  0  0  0
   -9.9046  -28.0823   25.6146 N   0  0  0  0  0  0  0  0  0  0  0  0
  -10.4853  -27.0359   26.2145 C   0  0  0  0  0  0  0  0  0  0  0  0
  -11.1918  -26.1344   25.6226 N   0  0  0  0  0  0  0  0  0  0  0  0
  -10.8382  -24.9844   26.2614 C   0  0  0  0  0  0  0  0  0  0  0  0
  -11.2977  -23.6115   25.9083 C   0  0  0  0  0  0  0  0  0  0  0  0
  -11.8228  -22.6432   26.8748 C   0  0  0  0  0  0  0  0  0  0  0  0
  -12.7288  -23.2846   25.8163 C   0  0  0  0  0  0  0  0  0  0  0  0
   -9.9760  -25.2107   27.2660 C   0  0  0  0  0  0  0  0  0  0  0  0
  -10.1660  -26.5832   27.4122 N   0  0  0  0  0  0  0  0  0  0  0  0
   -7.8825  -30.4385   23.8846 H   0  0  0  0  0  0  0  0  0  0  0  0
   -8.4232  -29.4136   22.5434 H   0  0  0  0  0  0  0  0  0  0  0  0
  -10.1754  -31.1047   21.7008 H   0  0  0  0  0  0  0  0  0  0  0  0
  -11.1528  -31.1268   22.9280 H   0  0  0  0  0  0  0  0  0  0  0  0
  -10.6207  -32.9832   25.0494 H   0  0  0  0  0  0  0  0  0  0  0  0
  -10.2934  -35.3553   25.3336 H   0  0  0  0  0  0  0  0  0  0  0  0
   -9.6860  -38.5877   21.7823 H   0  0  0  0  0  0  0  0  0  0  0  0
  -10.1879  -33.2823   20.8438 H   0  0  0  0  0  0  0  0  0  0  0  0
   -9.8866  -28.9730   26.0673 H   0  0  0  0  0  0  0  0  0  0  0  0
  -10.8095  -23.3346   24.9945 H   0  0  0  0  0  0  0  0  0  0  0  0
  -11.7732  -21.5710   26.7931 H   0  0  0  0  0  0  0  0  0  0  0  0
  -11.6899  -22.9529   27.9008 H   0  0  0  0  0  0  0  0  0  0  0  0
  -13.3625  -24.1432   25.9741 H   0  0  0  0  0  0  0  0  0  0  0  0
  -13.0585  -22.6502   25.0006 H   0  0  0  0  0  0  0  0  0  0  0  0
   -9.5603  -24.5484   28.0102 H   0  0  0  0  0  0  0  0  0  0  0  0
   -9.9851  -27.1570   28.2143 H   0  0  0  0  0  0  0  0  0  0  0  0
  1  2  2  0
  2  3  1  0
  3  4  1  0
  4  5  1  0
  5  6  2  0
  6  7  1  0
  7  8  2  0
  8  9  1  0
  9 10  2  0
 10 11  1  0
 11 12  1  0
 12 13  2  0
  2 14  1  0
 14 15  1  0
 15 16  2  0
 16 17  1  0
 17 18  1  0
 18 19  1  0
 19 20  1  0
 17 21  2  0
 21 22  1  0
 13  5  1  0
 22 15  1  0
 12  8  1  0
 20 18  1  0
  3 23  1  0
  3 24  1  0
  4 25  1  0
  4 26  1  0
  6 27  1  0
  7 28  1  0
 10 29  1  0
 13 30  1  0
 14 31  1  0
 18 32  1  0
 19 33  1  0
 19 34  1  0
 20 35  1  0
 20 36  1  0
 21 37  1  0
 22 38  1  0
M  END
>  <Energy>  (280) 
203.3326803091652

>  <compound_id>  (280) 
12533

>  <target_id>  (280) 
1

>  <reference_id>  (280) 
68

>  <inspiration_ids>  (280) 
[115, 68]

>  <energy_score>  (280) 
147.30387988413906

>  <distance_score>  (280) 
3.3866754183652863

>  <path>  (280) 
/opt/xchem-fragalysis-2/maxwin/BulkDock/SCRATCH/511014/C12533-P68/C12533-P68.minimised.mol

>  <scratch_subdir>  (280) 
/opt/xchem-fragalysis-2/maxwin/BulkDock/SCRATCH/511014/C12533-P68

>  <fragmenstein_runtime>  (280) 
8.502917528152466

>  <fragmenstein_outcome>  (280) 
too moved

>  <fragmenstein_mode>  (280) 
expansion

>  <fragmenstein_error>  (280) 


$$$$
C12534-P115
     RDKit          3D

 36 38  0  0  0  0  0  0  0  0999 V2000
  -10.8052  -26.7134   30.2920 C   0  0  0  0  0  0  0  0  0  0  0  0
  -11.0394  -25.8365   29.1810 N   0  0  0  0  0  0  0  0  0  0  0  0
  -11.0933  -24.4787   29.2950 C   0  0  0  0  0  0  0  0  0  0  0  0
  -11.2749  -24.0155   28.0185 C   0  0  0  0  0  0  0  0  0  0  0  0
  -11.4582  -25.0607   27.1580 N   0  0  0  0  0  0  0  0  0  0  0  0
  -11.3311  -26.1612   27.8787 C   0  0  0  0  0  0  0  0  0  0  0  0
  -11.6650  -27.5456   27.3541 C   0  0  0  0  0  0  0  0  0  0  0  0
  -10.8760  -28.0648   26.0236 C   0  0  0  0  0  0  0  0  0  0  0  0
   -9.7385  -27.2604   26.0541 N   0  0  0  0  0  0  0  0  0  0  0  0
  -10.1653  -29.6846   25.3715 C   0  0  0  0  0  0  0  0  0  0  0  0
   -9.0653  -29.4985   24.9274 O   0  0  0  0  0  0  0  0  0  0  0  0
  -11.0119  -30.9133   25.3673 N   0  0  0  0  0  0  0  0  0  0  0  0
  -10.8103  -32.1646   24.7644 C   0  0  0  0  0  0  0  0  0  0  0  0
  -11.7773  -33.1601   24.9074 C   0  0  0  0  0  0  0  0  0  0  0  0
  -11.5981  -34.4302   24.3331 C   0  0  0  0  0  0  0  0  0  0  0  0
  -10.4633  -34.6960   23.5407 C   0  0  0  0  0  0  0  0  0  0  0  0
  -10.1464  -35.9091   22.9482 N   0  0  0  0  0  0  0  0  0  0  0  0
   -9.0385  -35.7781   22.2539 C   0  0  0  0  0  0  0  0  0  0  0  0
   -8.3284  -34.2227   22.2389 S   0  0  0  0  0  0  0  0  0  0  0  0
   -9.5592  -33.6580   23.3112 C   0  0  0  0  0  0  0  0  0  0  0  0
   -9.7146  -32.3901   23.9129 C   0  0  0  0  0  0  0  0  0  0  0  0
   -9.7880  -27.0930   30.2237 H   0  0  0  0  0  0  0  0  0  0  0  0
  -11.5383  -27.5186   30.2623 H   0  0  0  0  0  0  0  0  0  0  0  0
  -10.9204  -26.1583   31.2271 H   0  0  0  0  0  0  0  0  0  0  0  0
  -11.0042  -23.9705   30.2425 H   0  0  0  0  0  0  0  0  0  0  0  0
  -11.3516  -22.9887   27.6822 H   0  0  0  0  0  0  0  0  0  0  0  0
  -12.7209  -27.3427   27.1299 H   0  0  0  0  0  0  0  0  0  0  0  0
  -11.7083  -28.2980   28.1349 H   0  0  0  0  0  0  0  0  0  0  0  0
  -11.3788  -27.6353   25.1371 H   0  0  0  0  0  0  0  0  0  0  0  0
   -9.8707  -26.7314   25.1960 H   0  0  0  0  0  0  0  0  0  0  0  0
   -8.9086  -27.8477   25.9096 H   0  0  0  0  0  0  0  0  0  0  0  0
  -11.8408  -30.7455   25.8994 H   0  0  0  0  0  0  0  0  0  0  0  0
  -12.6729  -32.9861   25.4969 H   0  0  0  0  0  0  0  0  0  0  0  0
  -12.3276  -35.2179   24.4946 H   0  0  0  0  0  0  0  0  0  0  0  0
   -8.5998  -36.6010   21.7051 H   0  0  0  0  0  0  0  0  0  0  0  0
   -8.9762  -31.6143   23.7226 H   0  0  0  0  0  0  0  0  0  0  0  0
  1  2  1  0
  2  3  1  0
  3  4  2  0
  4  5  1  0
  5  6  2  0
  6  7  1  0
  7  8  1  0
  8  9  1  0
  8 10  1  0
 10 11  2  0
 10 12  1  0
 12 13  1  0
 13 14  2  0
 14 15  1  0
 15 16  2  0
 16 17  1  0
 17 18  2  0
 18 19  1  0
 19 20  1  0
 20 21  2  0
  6  2  1  0
 21 13  1  0
 20 16  1  0
  1 22  1  0
  1 23  1  0
  1 24  1  0
  3 25  1  0
  4 26  1  0
  7 27  1  0
  7 28  1  0
  8 29  1  0
  9 30  1  0
  9 31  1  0
 12 32  1  0
 14 33  1  0
 15 34  1  0
 18 35  1  0
 21 36  1  0
M  END
>  <Energy>  (281) 
135.36810499767071

>  <compound_id>  (281) 
12534

>  <target_id>  (281) 
1

>  <reference_id>  (281) 
115

>  <inspiration_ids>  (281) 
[115, 68]

>  <energy_score>  (281) 
-23.859321067925293

>  <distance_score>  (281) 
3.233159967858924

>  <path>  (281) 
/opt/xchem-fragalysis-2/maxwin/BulkDock/SCRATCH/511014/C12534-P115/C12534-P115.minimised.mol

>  <scratch_subdir>  (281) 
/opt/xchem-fragalysis-2/maxwin/BulkDock/SCRATCH/511014/C12534-P115

>  <fragmenstein_runtime>  (281) 
4.002100706100464

>  <fragmenstein_outcome>  (281) 
too moved

>  <fragmenstein_mode>  (281) 
expansion

>  <fragmenstein_error>  (281) 


$$$$
C12534-P68
     RDKit          3D

 36 38  0  0  0  0  0  0  0  0999 V2000
  -10.4601  -24.6819   26.5793 C   0  0  0  0  0  0  0  0  0  0  0  0
  -11.5886  -25.5125   26.2089 N   0  0  0  0  0  0  0  0  0  0  0  0
  -12.8636  -24.9973   26.0306 C   0  0  0  0  0  0  0  0  0  0  0  0
  -13.6510  -26.0401   25.6539 C   0  0  0  0  0  0  0  0  0  0  0  0
  -12.8825  -27.1578   25.5964 N   0  0  0  0  0  0  0  0  0  0  0  0
  -11.7009  -26.8819   26.1255 C   0  0  0  0  0  0  0  0  0  0  0  0
  -10.5826  -27.9155   26.4081 C   0  0  0  0  0  0  0  0  0  0  0  0
   -9.8640  -28.3330   24.8775 C   0  0  0  0  0  0  0  0  0  0  0  0
   -9.1551  -27.2959   24.6962 N   0  0  0  0  0  0  0  0  0  0  0  0
   -9.0136  -29.8641   23.5240 C   0  0  0  0  0  0  0  0  0  0  0  0
   -7.8333  -29.7060   23.3975 O   0  0  0  0  0  0  0  0  0  0  0  0
  -10.1370  -31.1874   22.9230 N   0  0  0  0  0  0  0  0  0  0  0  0
   -9.8720  -32.4035   22.2463 C   0  0  0  0  0  0  0  0  0  0  0  0
  -10.6863  -32.6960   21.1570 C   0  0  0  0  0  0  0  0  0  0  0  0
  -10.9771  -34.0221   20.7523 C   0  0  0  0  0  0  0  0  0  0  0  0
  -10.4891  -35.1133   21.4936 C   0  0  0  0  0  0  0  0  0  0  0  0
  -10.5785  -36.4582   21.1808 N   0  0  0  0  0  0  0  0  0  0  0  0
  -10.0393  -37.1692   22.1470 C   0  0  0  0  0  0  0  0  0  0  0  0
   -9.4697  -36.2958   23.5045 S   0  0  0  0  0  0  0  0  0  0  0  0
   -9.8913  -34.8299   22.7133 C   0  0  0  0  0  0  0  0  0  0  0  0
   -9.7460  -33.5006   23.1400 C   0  0  0  0  0  0  0  0  0  0  0  0
   -9.8740  -25.1607   27.3512 H   0  0  0  0  0  0  0  0  0  0  0  0
   -9.8439  -24.5042   25.7061 H   0  0  0  0  0  0  0  0  0  0  0  0
  -10.8417  -23.7422   26.9854 H   0  0  0  0  0  0  0  0  0  0  0  0
  -13.0232  -23.9308   26.0597 H   0  0  0  0  0  0  0  0  0  0  0  0
  -14.6803  -26.0336   25.3177 H   0  0  0  0  0  0  0  0  0  0  0  0
  -10.8664  -28.7307   27.0695 H   0  0  0  0  0  0  0  0  0  0  0  0
   -9.9772  -27.3846   27.1263 H   0  0  0  0  0  0  0  0  0  0  0  0
  -10.7093  -27.7411   24.4647 H   0  0  0  0  0  0  0  0  0  0  0  0
   -8.9611  -27.4637   23.6662 H   0  0  0  0  0  0  0  0  0  0  0  0
   -9.2377  -26.4557   25.2898 H   0  0  0  0  0  0  0  0  0  0  0  0
  -11.0898  -30.9857   23.1269 H   0  0  0  0  0  0  0  0  0  0  0  0
  -11.1355  -31.8825   20.5853 H   0  0  0  0  0  0  0  0  0  0  0  0
  -11.5538  -34.2010   19.8491 H   0  0  0  0  0  0  0  0  0  0  0  0
   -9.9779  -38.2489   22.1043 H   0  0  0  0  0  0  0  0  0  0  0  0
   -9.4581  -33.3233   24.1759 H   0  0  0  0  0  0  0  0  0  0  0  0
  1  2  1  0
  2  3  1  0
  3  4  2  0
  4  5  1  0
  5  6  2  0
  6  7  1  0
  7  8  1  0
  8  9  1  0
  8 10  1  0
 10 11  2  0
 10 12  1  0
 12 13  1  0
 13 14  2  0
 14 15  1  0
 15 16  2  0
 16 17  1  0
 17 18  2  0
 18 19  1  0
 19 20  1  0
 20 21  2  0
  6  2  1  0
 21 13  1  0
 20 16  1  0
  1 22  1  0
  1 23  1  0
  1 24  1  0
  3 25  1  0
  4 26  1  0
  7 27  1  0
  7 28  1  0
  8 29  1  0
  9 30  1  0
  9 31  1  0
 12 32  1  0
 14 33  1  0
 15 34  1  0
 18 35  1  0
 21 36  1  0
M  END
>  <Energy>  (282) 
396.63330085992339

>  <compound_id>  (282) 
12534

>  <target_id>  (282) 
1

>  <reference_id>  (282) 
68

>  <inspiration_ids>  (282) 
[115, 68]

>  <energy_score>  (282) 
237.40587479432827

>  <distance_score>  (282) 
4.271004995521013

>  <path>  (282) 
/opt/xchem-fragalysis-2/maxwin/BulkDock/SCRATCH/511014/C12534-P68/C12534-P68.minimised.mol

>  <scratch_subdir>  (282) 
/opt/xchem-fragalysis-2/maxwin/BulkDock/SCRATCH/511014/C12534-P68

>  <fragmenstein_runtime>  (282) 
7.825003147125244

>  <fragmenstein_outcome>  (282) 
too moved

>  <fragmenstein_mode>  (282) 
expansion

>  <fragmenstein_error>  (282) 


$$$$
C12537-P115
     RDKit          3D

 36 38  0  0  0  0  0  0  0  0999 V2000
   -9.0532  -30.0868   23.8384 O   0  0  0  0  0  0  0  0  0  0  0  0
   -9.9738  -30.3960   24.5760 C   0  0  0  0  0  0  0  0  0  0  0  0
  -10.7789  -31.7208   24.5112 C   0  0  0  0  0  0  0  0  0  0  0  0
  -10.2276  -33.0693   23.9938 C   0  0  0  0  0  0  0  0  0  0  0  0
  -10.8436  -34.2395   24.4929 C   0  0  0  0  0  0  0  0  0  0  0  0
  -10.3139  -35.5221   24.2801 C   0  0  0  0  0  0  0  0  0  0  0  0
   -9.1713  -35.6765   23.4801 C   0  0  0  0  0  0  0  0  0  0  0  0
   -8.4831  -36.8643   23.2685 N   0  0  0  0  0  0  0  0  0  0  0  0
   -7.4899  -36.6439   22.4389 C   0  0  0  0  0  0  0  0  0  0  0  0
   -7.3345  -35.0453   21.8480 S   0  0  0  0  0  0  0  0  0  0  0  0
   -8.6567  -34.5428   22.8440 C   0  0  0  0  0  0  0  0  0  0  0  0
   -9.1750  -33.2350   23.0793 C   0  0  0  0  0  0  0  0  0  0  0  0
  -10.5297  -29.5519   25.5553 O   0  0  0  0  0  0  0  0  0  0  0  0
  -10.3414  -28.0395   25.6064 C   0  0  0  0  0  0  0  0  0  0  0  0
  -11.1394  -27.2262   26.7387 C   0  0  0  0  0  0  0  0  0  0  0  0
  -10.2954  -26.2310   27.5600 C   0  0  0  0  0  0  0  0  0  0  0  0
  -10.6081  -26.0543   28.9663 N   0  0  0  0  0  0  0  0  0  0  0  0
   -9.7661  -25.4844   29.8742 C   0  0  0  0  0  0  0  0  0  0  0  0
  -10.4403  -25.4651   31.0655 C   0  0  0  0  0  0  0  0  0  0  0  0
  -11.6706  -26.0197   30.9002 N   0  0  0  0  0  0  0  0  0  0  0  0
  -11.7437  -26.3582   29.6345 C   0  0  0  0  0  0  0  0  0  0  0  0
  -11.6761  -31.5310   23.9151 H   0  0  0  0  0  0  0  0  0  0  0  0
  -11.1182  -31.8927   25.5407 H   0  0  0  0  0  0  0  0  0  0  0  0
  -11.7112  -34.1579   25.1472 H   0  0  0  0  0  0  0  0  0  0  0  0
  -10.7601  -36.3908   24.7535 H   0  0  0  0  0  0  0  0  0  0  0  0
   -6.8127  -37.4269   22.1244 H   0  0  0  0  0  0  0  0  0  0  0  0
   -8.6874  -32.3745   22.6223 H   0  0  0  0  0  0  0  0  0  0  0  0
   -9.2839  -27.9036   25.7833 H   0  0  0  0  0  0  0  0  0  0  0  0
  -10.7053  -27.6606   24.6649 H   0  0  0  0  0  0  0  0  0  0  0  0
  -11.6361  -27.9187   27.4244 H   0  0  0  0  0  0  0  0  0  0  0  0
  -11.9246  -26.6348   26.2491 H   0  0  0  0  0  0  0  0  0  0  0  0
  -10.3532  -25.2323   27.1129 H   0  0  0  0  0  0  0  0  0  0  0  0
   -9.2571  -26.5595   27.5740 H   0  0  0  0  0  0  0  0  0  0  0  0
   -8.7870  -25.1496   29.5944 H   0  0  0  0  0  0  0  0  0  0  0  0
  -10.1071  -25.0895   32.0242 H   0  0  0  0  0  0  0  0  0  0  0  0
  -12.6048  -26.8075   29.1619 H   0  0  0  0  0  0  0  0  0  0  0  0
  1  2  2  0
  2  3  1  0
  3  4  1  0
  4  5  2  0
  5  6  1  0
  6  7  2  0
  7  8  1  0
  8  9  2  0
  9 10  1  0
 10 11  1  0
 11 12  2  0
  2 13  1  0
 13 14  1  0
 14 15  1  0
 15 16  1  0
 16 17  1  0
 17 18  1  0
 18 19  2  0
 19 20  1  0
 20 21  2  0
 12  4  1  0
 21 17  1  0
 11  7  1  0
  3 22  1  0
  3 23  1  0
  5 24  1  0
  6 25  1  0
  9 26  1  0
 12 27  1  0
 14 28  1  0
 14 29  1  0
 15 30  1  0
 15 31  1  0
 16 32  1  0
 16 33  1  0
 18 34  1  0
 19 35  1  0
 21 36  1  0
M  END
>  <Energy>  (283) 
59.812341172911999

>  <compound_id>  (283) 
12537

>  <target_id>  (283) 
1

>  <reference_id>  (283) 
115

>  <inspiration_ids>  (283) 
[115, 68]

>  <energy_score>  (283) 
-45.02927342817452

>  <distance_score>  (283) 
2.0695905606138694

>  <path>  (283) 
/opt/xchem-fragalysis-2/maxwin/BulkDock/SCRATCH/511014/C12537-P115/C12537-P115.minimised.mol

>  <scratch_subdir>  (283) 
/opt/xchem-fragalysis-2/maxwin/BulkDock/SCRATCH/511014/C12537-P115

>  <fragmenstein_runtime>  (283) 
1.757802963256836

>  <fragmenstein_outcome>  (283) 
too moved

>  <fragmenstein_mode>  (283) 
expansion

>  <fragmenstein_error>  (283) 


$$$$
C12537-P68
     RDKit          3D

 36 38  0  0  0  0  0  0  0  0999 V2000
  -10.3698  -30.8205   22.1261 O   0  0  0  0  0  0  0  0  0  0  0  0
   -9.6345  -30.8800   23.1562 C   0  0  0  0  0  0  0  0  0  0  0  0
   -9.6440  -32.4044   23.8508 C   0  0  0  0  0  0  0  0  0  0  0  0
   -9.8589  -33.7378   23.1038 C   0  0  0  0  0  0  0  0  0  0  0  0
   -9.3924  -34.8736   23.8179 C   0  0  0  0  0  0  0  0  0  0  0  0
   -9.4970  -36.1679   23.3223 C   0  0  0  0  0  0  0  0  0  0  0  0
  -10.1293  -36.3592   22.0907 C   0  0  0  0  0  0  0  0  0  0  0  0
  -10.2888  -37.5841   21.4694 N   0  0  0  0  0  0  0  0  0  0  0  0
  -10.9477  -37.4147   20.3497 C   0  0  0  0  0  0  0  0  0  0  0  0
  -11.4416  -35.8181   19.9911 S   0  0  0  0  0  0  0  0  0  0  0  0
  -10.6562  -35.2507   21.4180 C   0  0  0  0  0  0  0  0  0  0  0  0
  -10.5343  -33.9251   21.9005 C   0  0  0  0  0  0  0  0  0  0  0  0
   -8.6749  -29.4160   23.7373 O   0  0  0  0  0  0  0  0  0  0  0  0
   -9.5571  -28.0321   24.8785 C   0  0  0  0  0  0  0  0  0  0  0  0
  -10.2838  -27.4151   26.5327 C   0  0  0  0  0  0  0  0  0  0  0  0
  -10.0215  -25.6316   27.2598 C   0  0  0  0  0  0  0  0  0  0  0  0
   -9.4618  -24.6359   28.6842 N   0  0  0  0  0  0  0  0  0  0  0  0
  -10.2382  -23.4809   29.0090 C   0  0  0  0  0  0  0  0  0  0  0  0
  -10.4098  -23.6878   30.7403 C   0  0  0  0  0  0  0  0  0  0  0  0
   -9.3173  -24.4758   31.3348 N   0  0  0  0  0  0  0  0  0  0  0  0
   -8.5786  -24.9070   30.1950 C   0  0  0  0  0  0  0  0  0  0  0  0
  -10.4824  -32.5673   24.5238 H   0  0  0  0  0  0  0  0  0  0  0  0
   -8.7444  -32.5559   24.4226 H   0  0  0  0  0  0  0  0  0  0  0  0
   -8.9068  -34.7498   24.7877 H   0  0  0  0  0  0  0  0  0  0  0  0
   -9.0983  -37.0157   23.8705 H   0  0  0  0  0  0  0  0  0  0  0  0
  -11.1849  -38.2396   19.6907 H   0  0  0  0  0  0  0  0  0  0  0  0
  -10.9570  -33.0984   21.3381 H   0  0  0  0  0  0  0  0  0  0  0  0
   -8.8770  -27.3006   24.8199 H   0  0  0  0  0  0  0  0  0  0  0  0
  -10.4635  -27.6402   24.4147 H   0  0  0  0  0  0  0  0  0  0  0  0
  -10.1124  -28.1757   27.3085 H   0  0  0  0  0  0  0  0  0  0  0  0
  -11.3580  -27.3802   26.3158 H   0  0  0  0  0  0  0  0  0  0  0  0
   -9.3515  -25.1058   26.5889 H   0  0  0  0  0  0  0  0  0  0  0  0
   -9.9175  -26.2955   28.1136 H   0  0  0  0  0  0  0  0  0  0  0  0
  -10.8921  -22.9282   28.3364 H   0  0  0  0  0  0  0  0  0  0  0  0
  -11.1263  -23.1192   31.3281 H   0  0  0  0  0  0  0  0  0  0  0  0
   -8.0986  -25.8885   30.3168 H   0  0  0  0  0  0  0  0  0  0  0  0
  1  2  2  0
  2  3  1  0
  3  4  1  0
  4  5  2  0
  5  6  1  0
  6  7  2  0
  7  8  1  0
  8  9  2  0
  9 10  1  0
 10 11  1  0
 11 12  2  0
  2 13  1  0
 13 14  1  0
 14 15  1  0
 15 16  1  0
 16 17  1  0
 17 18  1  0
 18 19  2  0
 19 20  1  0
 20 21  2  0
 12  4  1  0
 21 17  1  0
 11  7  1  0
  3 22  1  0
  3 23  1  0
  5 24  1  0
  6 25  1  0
  9 26  1  0
 12 27  1  0
 14 28  1  0
 14 29  1  0
 15 30  1  0
 15 31  1  0
 16 32  1  0
 16 33  1  0
 18 34  1  0
 19 35  1  0
 21 36  1  0
M  END
>  <Energy>  (284) 
592.75722900437972

>  <compound_id>  (284) 
12537

>  <target_id>  (284) 
1

>  <reference_id>  (284) 
68

>  <inspiration_ids>  (284) 
[115, 68]

>  <energy_score>  (284) 
476.4013274888588

>  <distance_score>  (284) 
2.8199580221085583

>  <path>  (284) 
/opt/xchem-fragalysis-2/maxwin/BulkDock/SCRATCH/511014/C12537-P68/C12537-P68.minimised.mol

>  <scratch_subdir>  (284) 
/opt/xchem-fragalysis-2/maxwin/BulkDock/SCRATCH/511014/C12537-P68

>  <fragmenstein_runtime>  (284) 
6.501358985900879

>  <fragmenstein_outcome>  (284) 
too moved

>  <fragmenstein_mode>  (284) 
expansion

>  <fragmenstein_error>  (284) 


$$$$
C12538-P115
     RDKit          3D

 38 40  0  0  0  0  0  0  0  0999 V2000
  -10.5445  -25.1587   30.9145 C   0  0  0  0  0  0  0  0  0  0  0  0
  -11.3095  -24.7596   29.6613 C   0  0  0  0  0  0  0  0  0  0  0  0
  -11.5634  -25.8577   28.7543 N   0  0  0  0  0  0  0  0  0  0  0  0
  -12.0220  -27.0963   29.0813 C   0  0  0  0  0  0  0  0  0  0  0  0
  -11.9993  -27.9275   28.0652 N   0  0  0  0  0  0  0  0  0  0  0  0
  -11.4389  -27.1906   27.0311 C   0  0  0  0  0  0  0  0  0  0  0  0
  -10.6253  -27.8508   25.5749 S   0  0  0  0  0  0  0  0  0  0  0  0
  -11.2457  -27.1398   24.4840 O   0  0  0  0  0  0  0  0  0  0  0  0
   -9.3265  -27.4899   26.0531 O   0  0  0  0  0  0  0  0  0  0  0  0
  -10.2036  -29.5281   25.2310 N   0  0  0  0  0  0  0  0  0  0  0  0
  -10.8683  -30.8306   24.8933 C   0  0  0  0  0  0  0  0  0  0  0  0
  -11.3352  -31.3869   26.2088 C   0  0  0  0  0  0  0  0  0  0  0  0
  -10.1063  -31.8795   24.0571 C   0  0  0  0  0  0  0  0  0  0  0  0
  -10.6334  -33.1875   23.9425 C   0  0  0  0  0  0  0  0  0  0  0  0
   -9.9852  -34.2071   23.2363 C   0  0  0  0  0  0  0  0  0  0  0  0
   -8.7842  -33.9230   22.5738 C   0  0  0  0  0  0  0  0  0  0  0  0
   -8.0055  -34.8450   21.8937 N   0  0  0  0  0  0  0  0  0  0  0  0
   -6.9481  -34.2327   21.4111 C   0  0  0  0  0  0  0  0  0  0  0  0
   -6.8550  -32.5439   21.6725 S   0  0  0  0  0  0  0  0  0  0  0  0
   -8.3065  -32.6101   22.5990 C   0  0  0  0  0  0  0  0  0  0  0  0
   -8.9583  -31.5769   23.3141 C   0  0  0  0  0  0  0  0  0  0  0  0
  -11.2694  -25.8698   27.4238 C   0  0  0  0  0  0  0  0  0  0  0  0
  -10.3835  -24.2881   31.5569 H   0  0  0  0  0  0  0  0  0  0  0  0
   -9.5699  -25.5864   30.6599 H   0  0  0  0  0  0  0  0  0  0  0  0
  -11.0928  -25.8975   31.5051 H   0  0  0  0  0  0  0  0  0  0  0  0
  -10.7513  -24.0021   29.1034 H   0  0  0  0  0  0  0  0  0  0  0  0
  -12.2698  -24.3218   29.9245 H   0  0  0  0  0  0  0  0  0  0  0  0
  -12.2889  -27.3724   30.0830 H   0  0  0  0  0  0  0  0  0  0  0  0
   -9.2085  -29.6534   25.4572 H   0  0  0  0  0  0  0  0  0  0  0  0
  -11.7920  -30.7923   24.3474 H   0  0  0  0  0  0  0  0  0  0  0  0
  -10.4465  -31.5687   26.7821 H   0  0  0  0  0  0  0  0  0  0  0  0
  -11.9741  -32.2504   26.0365 H   0  0  0  0  0  0  0  0  0  0  0  0
  -11.9193  -30.7431   26.8685 H   0  0  0  0  0  0  0  0  0  0  0  0
  -11.5713  -33.4569   24.4224 H   0  0  0  0  0  0  0  0  0  0  0  0
  -10.3927  -35.2120   23.2051 H   0  0  0  0  0  0  0  0  0  0  0  0
   -6.1752  -34.7536   20.8623 H   0  0  0  0  0  0  0  0  0  0  0  0
   -8.5365  -30.5756   23.3132 H   0  0  0  0  0  0  0  0  0  0  0  0
  -10.8263  -25.0260   26.9140 H   0  0  0  0  0  0  0  0  0  0  0  0
  1  2  1  0
  2  3  1  0
  3  4  1  0
  4  5  2  0
  5  6  1  0
  6  7  1  0
  7  8  2  0
  7  9  2  0
  7 10  1  0
 10 11  1  0
 11 12  1  0
 11 13  1  0
 13 14  2  0
 14 15  1  0
 15 16  2  0
 16 17  1  0
 17 18  2  0
 18 19  1  0
 19 20  1  0
 20 21  2  0
  6 22  2  0
 22  3  1  0
 21 13  1  0
 20 16  1  0
  1 23  1  0
  1 24  1  0
  1 25  1  0
  2 26  1  0
  2 27  1  0
  4 28  1  0
 10 29  1  0
 11 30  1  0
 12 31  1  0
 12 32  1  0
 12 33  1  0
 14 34  1  0
 15 35  1  0
 18 36  1  0
 21 37  1  0
 22 38  1  0
M  END
>  <Energy>  (285) 
80.069372267257336

>  <compound_id>  (285) 
12538

>  <target_id>  (285) 
1

>  <reference_id>  (285) 
115

>  <inspiration_ids>  (285) 
[115, 68]

>  <energy_score>  (285) 
-21.503686639463922

>  <distance_score>  (285) 
3.497032173131713

>  <path>  (285) 
/opt/xchem-fragalysis-2/maxwin/BulkDock/SCRATCH/511014/C12538-P115/C12538-P115.minimised.mol

>  <scratch_subdir>  (285) 
/opt/xchem-fragalysis-2/maxwin/BulkDock/SCRATCH/511014/C12538-P115

>  <fragmenstein_runtime>  (285) 
3.6833975315093994

>  <fragmenstein_outcome>  (285) 
too moved

>  <fragmenstein_mode>  (285) 
expansion

>  <fragmenstein_error>  (285) 


$$$$
C12538-P68
     RDKit          3D

 38 40  0  0  0  0  0  0  0  0999 V2000
   -6.2766  -28.3992   28.9172 C   0  0  0  0  0  0  0  0  0  0  0  0
   -6.3910  -27.1459   29.7427 C   0  0  0  0  0  0  0  0  0  0  0  0
   -7.9035  -26.8500   30.1944 N   0  0  0  0  0  0  0  0  0  0  0  0
   -8.4003  -25.6438   30.1703 C   0  0  0  0  0  0  0  0  0  0  0  0
   -9.4063  -25.6015   28.8705 N   0  0  0  0  0  0  0  0  0  0  0  0
   -9.9930  -27.2042   28.7528 C   0  0  0  0  0  0  0  0  0  0  0  0
  -10.5062  -28.0149   27.2359 S   0  0  0  0  0  0  0  0  0  0  0  0
  -10.8191  -27.1233   26.1507 O   0  0  0  0  0  0  0  0  0  0  0  0
   -9.3370  -28.8710   27.2662 O   0  0  0  0  0  0  0  0  0  0  0  0
  -11.3175  -29.3780   27.2298 N   0  0  0  0  0  0  0  0  0  0  0  0
  -12.6080  -30.7605   26.4489 C   0  0  0  0  0  0  0  0  0  0  0  0
  -14.1739  -30.7439   26.6284 C   0  0  0  0  0  0  0  0  0  0  0  0
  -12.4636  -32.4663   25.8430 C   0  0  0  0  0  0  0  0  0  0  0  0
  -13.5278  -33.3729   26.1538 C   0  0  0  0  0  0  0  0  0  0  0  0
  -13.6164  -34.7209   25.7017 C   0  0  0  0  0  0  0  0  0  0  0  0
  -12.5935  -35.2880   24.9282 C   0  0  0  0  0  0  0  0  0  0  0  0
  -12.4902  -36.5987   24.4944 N   0  0  0  0  0  0  0  0  0  0  0  0
  -11.3668  -36.7566   23.8281 C   0  0  0  0  0  0  0  0  0  0  0  0
  -10.3837  -35.3656   23.6641 S   0  0  0  0  0  0  0  0  0  0  0  0
  -11.5338  -34.4667   24.5923 C   0  0  0  0  0  0  0  0  0  0  0  0
  -11.4728  -33.1076   25.0116 C   0  0  0  0  0  0  0  0  0  0  0  0
   -9.1639  -27.8739   29.8458 C   0  0  0  0  0  0  0  0  0  0  0  0
   -6.3708  -28.2446   27.8481 H   0  0  0  0  0  0  0  0  0  0  0  0
   -7.0066  -29.0958   29.2662 H   0  0  0  0  0  0  0  0  0  0  0  0
   -5.3311  -28.9175   29.0441 H   0  0  0  0  0  0  0  0  0  0  0  0
   -5.8972  -26.2443   29.4835 H   0  0  0  0  0  0  0  0  0  0  0  0
   -5.7328  -27.2433   30.6136 H   0  0  0  0  0  0  0  0  0  0  0  0
   -8.5105  -24.9679   31.0017 H   0  0  0  0  0  0  0  0  0  0  0  0
  -10.4206  -29.9327   27.1502 H   0  0  0  0  0  0  0  0  0  0  0  0
  -12.6856  -30.2998   25.5482 H   0  0  0  0  0  0  0  0  0  0  0  0
  -14.6059  -29.7811   26.3826 H   0  0  0  0  0  0  0  0  0  0  0  0
  -14.6938  -31.3303   25.8579 H   0  0  0  0  0  0  0  0  0  0  0  0
  -14.5217  -31.1365   27.5870 H   0  0  0  0  0  0  0  0  0  0  0  0
  -14.3324  -33.1051   26.8374 H   0  0  0  0  0  0  0  0  0  0  0  0
  -14.4569  -35.3404   26.0041 H   0  0  0  0  0  0  0  0  0  0  0  0
  -11.0775  -37.7086   23.4014 H   0  0  0  0  0  0  0  0  0  0  0  0
  -10.5503  -32.6670   24.6602 H   0  0  0  0  0  0  0  0  0  0  0  0
   -8.7728  -28.8749   29.8141 H   0  0  0  0  0  0  0  0  0  0  0  0
  1  2  1  0
  2  3  1  0
  3  4  1  0
  4  5  2  0
  5  6  1  0
  6  7  1  0
  7  8  2  0
  7  9  2  0
  7 10  1  0
 10 11  1  0
 11 12  1  0
 11 13  1  0
 13 14  2  0
 14 15  1  0
 15 16  2  0
 16 17  1  0
 17 18  2  0
 18 19  1  0
 19 20  1  0
 20 21  2  0
  6 22  2  0
 22  3  1  0
 21 13  1  0
 20 16  1  0
  1 23  1  0
  1 24  1  0
  1 25  1  0
  2 26  1  0
  2 27  1  0
  4 28  1  0
 10 29  1  0
 11 30  1  0
 12 31  1  0
 12 32  1  0
 12 33  1  0
 14 34  1  0
 15 35  1  0
 18 36  1  0
 21 37  1  0
 22 38  1  0
M  END
>  <Energy>  (286) 
420.8307963558658

>  <compound_id>  (286) 
12538

>  <target_id>  (286) 
1

>  <reference_id>  (286) 
68

>  <inspiration_ids>  (286) 
[115, 68]

>  <energy_score>  (286) 
319.2577374491453

>  <distance_score>  (286) 
4.003647574722482

>  <path>  (286) 
/opt/xchem-fragalysis-2/maxwin/BulkDock/SCRATCH/511014/C12538-P68/C12538-P68.minimised.mol

>  <scratch_subdir>  (286) 
/opt/xchem-fragalysis-2/maxwin/BulkDock/SCRATCH/511014/C12538-P68

>  <fragmenstein_runtime>  (286) 
7.534205913543701

>  <fragmenstein_outcome>  (286) 
too moved

>  <fragmenstein_mode>  (286) 
expansion

>  <fragmenstein_error>  (286) 


$$$$
C12539-P115
     RDKit          3D

 34 36  0  0  0  0  0  0  0  0999 V2000
   -9.9964  -25.4631   29.7552 C   0  0  0  0  0  0  0  0  0  0  0  0
  -10.9208  -25.7527   28.5931 C   0  0  0  0  0  0  0  0  0  0  0  0
  -11.6590  -26.9792   28.7616 N   0  0  0  0  0  0  0  0  0  0  0  0
  -12.1587  -27.5009   29.8925 C   0  0  0  0  0  0  0  0  0  0  0  0
  -12.8280  -28.6370   29.6954 N   0  0  0  0  0  0  0  0  0  0  0  0
  -12.5247  -29.0207   28.3963 C   0  0  0  0  0  0  0  0  0  0  0  0
  -12.8016  -30.3115   27.7684 N   0  0  0  0  0  0  0  0  0  0  0  0
  -11.9973  -31.1080   26.5955 C   0  0  0  0  0  0  0  0  0  0  0  0
  -10.9703  -30.8469   26.0558 O   0  0  0  0  0  0  0  0  0  0  0  0
  -12.7695  -32.4038   25.9899 C   0  0  0  0  0  0  0  0  0  0  0  0
  -11.8986  -33.5133   25.1945 C   0  0  0  0  0  0  0  0  0  0  0  0
  -11.9878  -34.8514   25.6284 C   0  0  0  0  0  0  0  0  0  0  0  0
  -11.1056  -35.8600   25.1847 C   0  0  0  0  0  0  0  0  0  0  0  0
  -10.1177  -35.5791   24.2249 C   0  0  0  0  0  0  0  0  0  0  0  0
   -9.1346  -36.4631   23.7845 N   0  0  0  0  0  0  0  0  0  0  0  0
   -8.4035  -35.8716   22.8690 C   0  0  0  0  0  0  0  0  0  0  0  0
   -8.8601  -34.2707   22.4559 S   0  0  0  0  0  0  0  0  0  0  0  0
  -10.1008  -34.2939   23.6714 C   0  0  0  0  0  0  0  0  0  0  0  0
  -10.9840  -33.2540   24.1351 C   0  0  0  0  0  0  0  0  0  0  0  0
  -11.8623  -27.9256   27.8248 C   0  0  0  0  0  0  0  0  0  0  0  0
  -10.5188  -24.9096   30.5422 H   0  0  0  0  0  0  0  0  0  0  0  0
   -9.1589  -24.8673   29.4016 H   0  0  0  0  0  0  0  0  0  0  0  0
   -9.5971  -26.3751   30.2046 H   0  0  0  0  0  0  0  0  0  0  0  0
  -10.3316  -25.8460   27.6744 H   0  0  0  0  0  0  0  0  0  0  0  0
  -11.6441  -24.9443   28.4510 H   0  0  0  0  0  0  0  0  0  0  0  0
  -11.9717  -26.9677   30.8053 H   0  0  0  0  0  0  0  0  0  0  0  0
  -13.6044  -30.8522   28.0582 H   0  0  0  0  0  0  0  0  0  0  0  0
  -13.3680  -32.8724   26.7797 H   0  0  0  0  0  0  0  0  0  0  0  0
  -13.4886  -32.0545   25.2500 H   0  0  0  0  0  0  0  0  0  0  0  0
  -12.6981  -35.1211   26.4106 H   0  0  0  0  0  0  0  0  0  0  0  0
  -11.1612  -36.8565   25.6127 H   0  0  0  0  0  0  0  0  0  0  0  0
   -7.5697  -36.3602   22.3828 H   0  0  0  0  0  0  0  0  0  0  0  0
  -10.8714  -32.2443   23.7395 H   0  0  0  0  0  0  0  0  0  0  0  0
  -11.4547  -27.7407   26.8412 H   0  0  0  0  0  0  0  0  0  0  0  0
  1  2  1  0
  2  3  1  0
  3  4  1  0
  4  5  2  0
  5  6  1  0
  6  7  1  0
  7  8  1  0
  8  9  2  0
  8 10  1  0
 10 11  1  0
 11 12  2  0
 12 13  1  0
 13 14  2  0
 14 15  1  0
 15 16  2  0
 16 17  1  0
 17 18  1  0
 18 19  2  0
  6 20  2  0
 20  3  1  0
 19 11  1  0
 18 14  1  0
  1 21  1  0
  1 22  1  0
  1 23  1  0
  2 24  1  0
  2 25  1  0
  4 26  1  0
  7 27  1  0
 10 28  1  0
 10 29  1  0
 12 30  1  0
 13 31  1  0
 16 32  1  0
 19 33  1  0
 20 34  1  0
M  END
>  <Energy>  (287) 
52.388738767682057

>  <compound_id>  (287) 
12539

>  <target_id>  (287) 
1

>  <reference_id>  (287) 
115

>  <inspiration_ids>  (287) 
[115, 68]

>  <energy_score>  (287) 
-52.98706827132497

>  <distance_score>  (287) 
3.2822755371484296

>  <path>  (287) 
/opt/xchem-fragalysis-2/maxwin/BulkDock/SCRATCH/511014/C12539-P115/C12539-P115.minimised.mol

>  <scratch_subdir>  (287) 
/opt/xchem-fragalysis-2/maxwin/BulkDock/SCRATCH/511014/C12539-P115

>  <fragmenstein_runtime>  (287) 
1.9732894897460938

>  <fragmenstein_outcome>  (287) 
too moved

>  <fragmenstein_mode>  (287) 
expansion

>  <fragmenstein_error>  (287) 


$$$$
C12539-P68
     RDKit          3D

 34 36  0  0  0  0  0  0  0  0999 V2000
   -6.6243  -28.2572   28.9683 C   0  0  0  0  0  0  0  0  0  0  0  0
   -8.1821  -28.6315   28.9589 C   0  0  0  0  0  0  0  0  0  0  0  0
   -9.4486  -28.4411   28.1376 N   0  0  0  0  0  0  0  0  0  0  0  0
  -10.1966  -27.4060   27.6695 C   0  0  0  0  0  0  0  0  0  0  0  0
  -11.2393  -27.7737   26.9904 N   0  0  0  0  0  0  0  0  0  0  0  0
  -11.2410  -29.1286   27.1725 C   0  0  0  0  0  0  0  0  0  0  0  0
  -12.5824  -30.2601   26.5407 N   0  0  0  0  0  0  0  0  0  0  0  0
  -12.5550  -31.6823   26.1616 C   0  0  0  0  0  0  0  0  0  0  0  0
  -11.6388  -32.4534   26.0884 O   0  0  0  0  0  0  0  0  0  0  0  0
  -13.9282  -32.3325   25.8106 C   0  0  0  0  0  0  0  0  0  0  0  0
  -13.6406  -33.6387   25.0160 C   0  0  0  0  0  0  0  0  0  0  0  0
  -13.8649  -34.8783   25.6234 C   0  0  0  0  0  0  0  0  0  0  0  0
  -13.2453  -36.0424   25.1379 C   0  0  0  0  0  0  0  0  0  0  0  0
  -12.3519  -35.9733   24.0488 C   0  0  0  0  0  0  0  0  0  0  0  0
  -11.5805  -37.0164   23.5575 N   0  0  0  0  0  0  0  0  0  0  0  0
  -10.8293  -36.5784   22.5729 C   0  0  0  0  0  0  0  0  0  0  0  0
  -11.0317  -34.9352   22.1335 S   0  0  0  0  0  0  0  0  0  0  0  0
  -12.1951  -34.7495   23.3981 C   0  0  0  0  0  0  0  0  0  0  0  0
  -12.8817  -33.5894   23.8185 C   0  0  0  0  0  0  0  0  0  0  0  0
   -9.9895  -29.4909   27.5240 C   0  0  0  0  0  0  0  0  0  0  0  0
   -6.1741  -28.2022   27.9636 H   0  0  0  0  0  0  0  0  0  0  0  0
   -6.0384  -29.0268   29.4057 H   0  0  0  0  0  0  0  0  0  0  0  0
   -6.3932  -27.3368   29.5059 H   0  0  0  0  0  0  0  0  0  0  0  0
   -8.3690  -29.4272   29.6507 H   0  0  0  0  0  0  0  0  0  0  0  0
   -7.8426  -28.7160   27.9274 H   0  0  0  0  0  0  0  0  0  0  0  0
   -9.9763  -26.3510   27.7790 H   0  0  0  0  0  0  0  0  0  0  0  0
  -13.5131  -29.9009   26.4135 H   0  0  0  0  0  0  0  0  0  0  0  0
  -14.6017  -31.6869   25.2485 H   0  0  0  0  0  0  0  0  0  0  0  0
  -14.4243  -32.5736   26.7580 H   0  0  0  0  0  0  0  0  0  0  0  0
  -14.4489  -34.9469   26.5391 H   0  0  0  0  0  0  0  0  0  0  0  0
  -13.3860  -36.9929   25.6434 H   0  0  0  0  0  0  0  0  0  0  0  0
  -10.1282  -37.2193   22.0545 H   0  0  0  0  0  0  0  0  0  0  0  0
  -12.6654  -32.6472   23.3258 H   0  0  0  0  0  0  0  0  0  0  0  0
   -9.6502  -30.4806   27.6934 H   0  0  0  0  0  0  0  0  0  0  0  0
  1  2  1  0
  2  3  1  0
  3  4  1  0
  4  5  2  0
  5  6  1  0
  6  7  1  0
  7  8  1  0
  8  9  2  0
  8 10  1  0
 10 11  1  0
 11 12  2  0
 12 13  1  0
 13 14  2  0
 14 15  1  0
 15 16  2  0
 16 17  1  0
 17 18  1  0
 18 19  2  0
  6 20  2  0
 20  3  1  0
 19 11  1  0
 18 14  1  0
  1 21  1  0
  1 22  1  0
  1 23  1  0
  2 24  1  0
  2 25  1  0
  4 26  1  0
  7 27  1  0
 10 28  1  0
 10 29  1  0
 12 30  1  0
 13 31  1  0
 16 32  1  0
 19 33  1  0
 20 34  1  0
M  END
>  <Energy>  (288) 
180.80366276084803

>  <compound_id>  (288) 
12539

>  <target_id>  (288) 
1

>  <reference_id>  (288) 
68

>  <inspiration_ids>  (288) 
[115, 68]

>  <energy_score>  (288) 
110.17524829314266

>  <distance_score>  (288) 
4.344306793595962

>  <path>  (288) 
/opt/xchem-fragalysis-2/maxwin/BulkDock/SCRATCH/511014/C12539-P68/C12539-P68.minimised.mol

>  <scratch_subdir>  (288) 
/opt/xchem-fragalysis-2/maxwin/BulkDock/SCRATCH/511014/C12539-P68

>  <fragmenstein_runtime>  (288) 
8.543975591659546

>  <fragmenstein_outcome>  (288) 
too moved

>  <fragmenstein_mode>  (288) 
expansion

>  <fragmenstein_error>  (288) 


$$$$
C12540-P115
     RDKit          3D

 39 41  0  0  0  0  0  0  0  0999 V2000
  -10.8267  -26.6170   29.7153 C   0  0  0  0  0  0  0  0  0  0  0  0
  -11.5794  -27.0811   28.4811 C   0  0  0  0  0  0  0  0  0  0  0  0
  -10.9248  -26.6735   27.2411 N   0  0  0  0  0  0  0  0  0  0  0  0
  -11.1136  -25.3364   26.9279 C   0  0  0  0  0  0  0  0  0  0  0  0
  -11.6979  -25.2223   25.7677 N   0  0  0  0  0  0  0  0  0  0  0  0
  -11.6884  -26.4867   25.2665 C   0  0  0  0  0  0  0  0  0  0  0  0
  -10.9423  -27.3824   26.0243 C   0  0  0  0  0  0  0  0  0  0  0  0
  -10.1840  -28.7261   25.4645 C   0  0  0  0  0  0  0  0  0  0  0  0
  -10.5780  -30.1624   24.8745 N   0  0  0  0  0  0  0  0  0  0  0  0
  -10.3102  -30.5696   26.2126 C   0  0  0  0  0  0  0  0  0  0  0  0
   -9.8446  -31.0471   23.9174 C   0  0  0  0  0  0  0  0  0  0  0  0
   -8.7734  -30.9318   23.4487 O   0  0  0  0  0  0  0  0  0  0  0  0
  -10.8150  -32.1495   23.8161 N   0  0  0  0  0  0  0  0  0  0  0  0
  -10.7075  -33.4057   23.2187 C   0  0  0  0  0  0  0  0  0  0  0  0
  -11.7178  -34.3398   23.4272 C   0  0  0  0  0  0  0  0  0  0  0  0
  -11.5087  -35.6911   23.1118 C   0  0  0  0  0  0  0  0  0  0  0  0
  -10.2691  -36.1135   22.5863 C   0  0  0  0  0  0  0  0  0  0  0  0
   -9.9044  -37.4203   22.2995 N   0  0  0  0  0  0  0  0  0  0  0  0
   -8.6762  -37.4375   21.8323 C   0  0  0  0  0  0  0  0  0  0  0  0
   -7.8869  -35.9261   21.7010 S   0  0  0  0  0  0  0  0  0  0  0  0
   -9.2906  -35.1518   22.3349 C   0  0  0  0  0  0  0  0  0  0  0  0
   -9.4989  -33.7924   22.6204 C   0  0  0  0  0  0  0  0  0  0  0  0
  -10.8904  -25.5298   29.8330 H   0  0  0  0  0  0  0  0  0  0  0  0
  -11.2566  -27.0662   30.6093 H   0  0  0  0  0  0  0  0  0  0  0  0
   -9.7678  -26.8730   29.6695 H   0  0  0  0  0  0  0  0  0  0  0  0
  -12.5806  -26.6271   28.4862 H   0  0  0  0  0  0  0  0  0  0  0  0
  -11.7618  -28.1506   28.4354 H   0  0  0  0  0  0  0  0  0  0  0  0
  -10.9629  -24.5330   27.6391 H   0  0  0  0  0  0  0  0  0  0  0  0
  -12.0965  -26.7104   24.2987 H   0  0  0  0  0  0  0  0  0  0  0  0
  -10.3383  -28.3419   24.4611 H   0  0  0  0  0  0  0  0  0  0  0  0
   -9.0995  -28.6691   25.6209 H   0  0  0  0  0  0  0  0  0  0  0  0
  -10.9982  -30.2093   26.9824 H   0  0  0  0  0  0  0  0  0  0  0  0
   -9.2437  -30.6564   26.3674 H   0  0  0  0  0  0  0  0  0  0  0  0
  -10.6314  -31.6139   26.2269 H   0  0  0  0  0  0  0  0  0  0  0  0
  -11.6692  -31.8807   24.2763 H   0  0  0  0  0  0  0  0  0  0  0  0
  -12.6533  -34.0510   23.8972 H   0  0  0  0  0  0  0  0  0  0  0  0
  -12.2803  -36.4292   23.3073 H   0  0  0  0  0  0  0  0  0  0  0  0
   -8.1841  -38.3556   21.5394 H   0  0  0  0  0  0  0  0  0  0  0  0
   -8.6935  -33.0818   22.4527 H   0  0  0  0  0  0  0  0  0  0  0  0
  1  2  1  0
  2  3  1  0
  3  4  1  0
  4  5  2  0
  5  6  1  0
  6  7  2  0
  7  8  1  0
  8  9  1  0
  9 10  1  0
  9 11  1  0
 11 12  2  0
 11 13  1  0
 13 14  1  0
 14 15  2  0
 15 16  1  0
 16 17  2  0
 17 18  1  0
 18 19  2  0
 19 20  1  0
 20 21  1  0
 21 22  2  0
  7  3  1  0
 22 14  1  0
 21 17  1  0
  1 23  1  0
  1 24  1  0
  1 25  1  0
  2 26  1  0
  2 27  1  0
  4 28  1  0
  6 29  1  0
  8 30  1  0
  8 31  1  0
 10 32  1  0
 10 33  1  0
 10 34  1  0
 13 35  1  0
 15 36  1  0
 16 37  1  0
 19 38  1  0
 22 39  1  0
M  END
>  <Energy>  (289) 
90.456926147979217

>  <compound_id>  (289) 
12540

>  <target_id>  (289) 
1

>  <reference_id>  (289) 
115

>  <inspiration_ids>  (289) 
[115, 68]

>  <energy_score>  (289) 
56.87349696742007

>  <distance_score>  (289) 
3.5111862143973074

>  <path>  (289) 
/opt/xchem-fragalysis-2/maxwin/BulkDock/SCRATCH/511014/C12540-P115/C12540-P115.minimised.mol

>  <scratch_subdir>  (289) 
/opt/xchem-fragalysis-2/maxwin/BulkDock/SCRATCH/511014/C12540-P115

>  <fragmenstein_runtime>  (289) 
4.456175327301025

>  <fragmenstein_outcome>  (289) 
too moved

>  <fragmenstein_mode>  (289) 
expansion

>  <fragmenstein_error>  (289) 


$$$$
C12540-P68
     RDKit          3D

 39 41  0  0  0  0  0  0  0  0999 V2000
   -7.4201  -28.5670   28.7678 C   0  0  0  0  0  0  0  0  0  0  0  0
   -9.1236  -28.6621   28.4169 C   0  0  0  0  0  0  0  0  0  0  0  0
  -10.1652  -28.1960   27.5026 N   0  0  0  0  0  0  0  0  0  0  0  0
  -10.2855  -26.8612   27.1526 C   0  0  0  0  0  0  0  0  0  0  0  0
  -10.9885  -26.5773   26.1168 N   0  0  0  0  0  0  0  0  0  0  0  0
  -11.7188  -27.6529   26.0973 C   0  0  0  0  0  0  0  0  0  0  0  0
  -11.3268  -28.7974   26.9698 C   0  0  0  0  0  0  0  0  0  0  0  0
  -12.5494  -30.4088   26.4411 C   0  0  0  0  0  0  0  0  0  0  0  0
  -12.6320  -32.1339   26.0064 N   0  0  0  0  0  0  0  0  0  0  0  0
  -14.1181  -31.8998   26.2094 C   0  0  0  0  0  0  0  0  0  0  0  0
  -12.3937  -32.8323   24.6657 C   0  0  0  0  0  0  0  0  0  0  0  0
  -12.1899  -32.3777   23.5953 O   0  0  0  0  0  0  0  0  0  0  0  0
  -12.3924  -34.2164   25.1216 N   0  0  0  0  0  0  0  0  0  0  0  0
  -12.0585  -35.3967   24.4555 C   0  0  0  0  0  0  0  0  0  0  0  0
  -12.2234  -36.6092   25.1178 C   0  0  0  0  0  0  0  0  0  0  0  0
  -11.5642  -37.7596   24.6650 C   0  0  0  0  0  0  0  0  0  0  0  0
  -10.7036  -37.6874   23.5510 C   0  0  0  0  0  0  0  0  0  0  0  0
   -9.9229  -38.7199   23.0594 N   0  0  0  0  0  0  0  0  0  0  0  0
   -9.2070  -38.2838   22.0489 C   0  0  0  0  0  0  0  0  0  0  0  0
   -9.4571  -36.6563   21.5853 S   0  0  0  0  0  0  0  0  0  0  0  0
  -10.5917  -36.4742   22.8709 C   0  0  0  0  0  0  0  0  0  0  0  0
  -11.2969  -35.3271   23.2772 C   0  0  0  0  0  0  0  0  0  0  0  0
   -6.8118  -28.5396   27.8631 H   0  0  0  0  0  0  0  0  0  0  0  0
   -7.1890  -29.3366   29.4781 H   0  0  0  0  0  0  0  0  0  0  0  0
   -6.9845  -27.7355   29.3212 H   0  0  0  0  0  0  0  0  0  0  0  0
   -9.3907  -28.1828   29.3728 H   0  0  0  0  0  0  0  0  0  0  0  0
   -9.3797  -29.6822   28.2281 H   0  0  0  0  0  0  0  0  0  0  0  0
   -9.8626  -26.0337   27.7017 H   0  0  0  0  0  0  0  0  0  0  0  0
  -12.6142  -27.6536   25.5118 H   0  0  0  0  0  0  0  0  0  0  0  0
  -11.5875  -30.9714   26.4730 H   0  0  0  0  0  0  0  0  0  0  0  0
  -13.1939  -30.5735   27.2599 H   0  0  0  0  0  0  0  0  0  0  0  0
  -14.3886  -32.0118   27.2683 H   0  0  0  0  0  0  0  0  0  0  0  0
  -14.5738  -31.0230   25.7411 H   0  0  0  0  0  0  0  0  0  0  0  0
  -14.6275  -32.7448   25.7250 H   0  0  0  0  0  0  0  0  0  0  0  0
  -12.6898  -34.2466   26.0824 H   0  0  0  0  0  0  0  0  0  0  0  0
  -12.8164  -36.6742   26.0251 H   0  0  0  0  0  0  0  0  0  0  0  0
  -11.6593  -38.7013   25.1974 H   0  0  0  0  0  0  0  0  0  0  0  0
   -8.5040  -38.9184   21.5260 H   0  0  0  0  0  0  0  0  0  0  0  0
  -11.1261  -34.3876   22.7608 H   0  0  0  0  0  0  0  0  0  0  0  0
  1  2  1  0
  2  3  1  0
  3  4  1  0
  4  5  2  0
  5  6  1  0
  6  7  2  0
  7  8  1  0
  8  9  1  0
  9 10  1  0
  9 11  1  0
 11 12  2  0
 11 13  1  0
 13 14  1  0
 14 15  2  0
 15 16  1  0
 16 17  2  0
 17 18  1  0
 18 19  2  0
 19 20  1  0
 20 21  1  0
 21 22  2  0
  7  3  1  0
 22 14  1  0
 21 17  1  0
  1 23  1  0
  1 24  1  0
  1 25  1  0
  2 26  1  0
  2 27  1  0
  4 28  1  0
  6 29  1  0
  8 30  1  0
  8 31  1  0
 10 32  1  0
 10 33  1  0
 10 34  1  0
 13 35  1  0
 15 36  1  0
 16 37  1  0
 19 38  1  0
 22 39  1  0
M  END
>  <Energy>  (290) 
314.2486091361875

>  <compound_id>  (290) 
12540

>  <target_id>  (290) 
1

>  <reference_id>  (290) 
68

>  <inspiration_ids>  (290) 
[115, 68]

>  <energy_score>  (290) 
280.66517995563487

>  <distance_score>  (290) 
3.736133784513

>  <path>  (290) 
/opt/xchem-fragalysis-2/maxwin/BulkDock/SCRATCH/511014/C12540-P68/C12540-P68.minimised.mol

>  <scratch_subdir>  (290) 
/opt/xchem-fragalysis-2/maxwin/BulkDock/SCRATCH/511014/C12540-P68

>  <fragmenstein_runtime>  (290) 
10.645736932754517

>  <fragmenstein_outcome>  (290) 
too moved

>  <fragmenstein_mode>  (290) 
expansion

>  <fragmenstein_error>  (290) 


$$$$
C12541-P115
     RDKit          3D

 32 35  0  0  0  0  0  0  0  0999 V2000
  -12.1409  -27.5690   29.4130 N   0  0  0  0  0  0  0  0  0  0  0  0
  -12.5772  -28.5621   28.9816 C   0  0  0  0  0  0  0  0  0  0  0  0
  -13.1782  -29.8638   28.5822 C   0  0  0  0  0  0  0  0  0  0  0  0
  -14.4190  -30.1181   29.1339 C   0  0  0  0  0  0  0  0  0  0  0  0
  -15.1669  -31.2219   28.6975 C   0  0  0  0  0  0  0  0  0  0  0  0
  -14.7339  -32.0498   27.6391 C   0  0  0  0  0  0  0  0  0  0  0  0
  -13.5050  -31.8684   26.9785 C   0  0  0  0  0  0  0  0  0  0  0  0
  -13.3708  -32.6221   25.6030 C   0  0  0  0  0  0  0  0  0  0  0  0
  -14.5112  -32.8299   24.9315 N   0  0  0  0  0  0  0  0  0  0  0  0
  -14.2046  -32.7290   23.6065 C   0  0  0  0  0  0  0  0  0  0  0  0
  -12.8570  -32.5228   23.4493 C   0  0  0  0  0  0  0  0  0  0  0  0
  -12.3140  -32.9130   24.6704 N   0  0  0  0  0  0  0  0  0  0  0  0
  -11.3002  -33.9593   24.6256 C   0  0  0  0  0  0  0  0  0  0  0  0
  -11.3791  -35.0558   25.4828 C   0  0  0  0  0  0  0  0  0  0  0  0
  -10.4588  -36.1207   25.3797 C   0  0  0  0  0  0  0  0  0  0  0  0
   -9.4573  -36.1292   24.3838 C   0  0  0  0  0  0  0  0  0  0  0  0
   -8.4805  -37.1019   24.2069 N   0  0  0  0  0  0  0  0  0  0  0  0
   -7.7425  -36.7953   23.1635 C   0  0  0  0  0  0  0  0  0  0  0  0
   -8.1531  -35.3502   22.3422 S   0  0  0  0  0  0  0  0  0  0  0  0
   -9.4177  -35.0603   23.4874 C   0  0  0  0  0  0  0  0  0  0  0  0
  -10.3162  -33.9669   23.5960 C   0  0  0  0  0  0  0  0  0  0  0  0
  -12.7009  -30.8188   27.5572 C   0  0  0  0  0  0  0  0  0  0  0  0
  -14.8458  -29.4697   29.8972 H   0  0  0  0  0  0  0  0  0  0  0  0
  -16.1440  -31.4127   29.1421 H   0  0  0  0  0  0  0  0  0  0  0  0
  -15.4200  -32.8235   27.2874 H   0  0  0  0  0  0  0  0  0  0  0  0
  -14.9683  -32.7658   22.8408 H   0  0  0  0  0  0  0  0  0  0  0  0
  -12.2645  -32.4028   22.5534 H   0  0  0  0  0  0  0  0  0  0  0  0
  -12.1599  -35.1296   26.2380 H   0  0  0  0  0  0  0  0  0  0  0  0
  -10.5200  -36.9572   26.0708 H   0  0  0  0  0  0  0  0  0  0  0  0
   -6.9230  -37.4178   22.8293 H   0  0  0  0  0  0  0  0  0  0  0  0
  -10.2164  -33.1423   22.8940 H   0  0  0  0  0  0  0  0  0  0  0  0
  -11.7126  -30.6484   27.1271 H   0  0  0  0  0  0  0  0  0  0  0  0
  1  2  3  0
  2  3  1  0
  3  4  2  0
  4  5  1  0
  5  6  2  0
  6  7  1  0
  7  8  1  0
  8  9  2  0
  9 10  1  0
 10 11  2  0
 11 12  1  0
 12 13  1  0
 13 14  2  0
 14 15  1  0
 15 16  2  0
 16 17  1  0
 17 18  2  0
 18 19  1  0
 19 20  1  0
 20 21  2  0
  7 22  2  0
 22  3  1  0
 12  8  1  0
 21 13  1  0
 20 16  1  0
  4 23  1  0
  5 24  1  0
  6 25  1  0
 10 26  1  0
 11 27  1  0
 14 28  1  0
 15 29  1  0
 18 30  1  0
 21 31  1  0
 22 32  1  0
M  END
>  <Energy>  (291) 
133.8577391715325

>  <compound_id>  (291) 
12541

>  <target_id>  (291) 
1

>  <reference_id>  (291) 
115

>  <inspiration_ids>  (291) 
[115, 68]

>  <energy_score>  (291) 
-26.18698203730969

>  <distance_score>  (291) 
2.9183660091937282

>  <path>  (291) 
/opt/xchem-fragalysis-2/maxwin/BulkDock/SCRATCH/511014/C12541-P115/C12541-P115.minimised.mol

>  <scratch_subdir>  (291) 
/opt/xchem-fragalysis-2/maxwin/BulkDock/SCRATCH/511014/C12541-P115

>  <fragmenstein_runtime>  (291) 
8.90106725692749

>  <fragmenstein_outcome>  (291) 
too moved

>  <fragmenstein_mode>  (291) 
expansion

>  <fragmenstein_error>  (291) 


$$$$
C12541-P68
     RDKit          3D

 32 35  0  0  0  0  0  0  0  0999 V2000
   -9.6585  -24.4303   26.9402 N   0  0  0  0  0  0  0  0  0  0  0  0
  -10.3497  -25.2648   26.5320 C   0  0  0  0  0  0  0  0  0  0  0  0
  -11.4312  -26.1305   26.1362 C   0  0  0  0  0  0  0  0  0  0  0  0
  -12.6645  -25.4071   26.0056 C   0  0  0  0  0  0  0  0  0  0  0  0
  -13.8304  -25.9879   25.6174 C   0  0  0  0  0  0  0  0  0  0  0  0
  -13.7899  -27.3473   25.5932 C   0  0  0  0  0  0  0  0  0  0  0  0
  -12.5225  -28.2914   25.7265 C   0  0  0  0  0  0  0  0  0  0  0  0
  -13.1084  -30.1781   26.0724 C   0  0  0  0  0  0  0  0  0  0  0  0
  -14.4635  -30.2825   26.3018 N   0  0  0  0  0  0  0  0  0  0  0  0
  -14.8482  -31.5243   26.6997 C   0  0  0  0  0  0  0  0  0  0  0  0
  -13.8434  -32.4114   26.5381 C   0  0  0  0  0  0  0  0  0  0  0  0
  -12.8253  -31.7810   25.8249 N   0  0  0  0  0  0  0  0  0  0  0  0
  -12.3085  -32.7359   24.7318 C   0  0  0  0  0  0  0  0  0  0  0  0
  -11.3200  -33.6843   25.0451 C   0  0  0  0  0  0  0  0  0  0  0  0
  -10.7552  -34.5769   24.1223 C   0  0  0  0  0  0  0  0  0  0  0  0
  -11.2036  -34.5632   22.8058 C   0  0  0  0  0  0  0  0  0  0  0  0
  -10.7198  -35.3624   21.7889 N   0  0  0  0  0  0  0  0  0  0  0  0
  -11.3872  -35.1041   20.6906 C   0  0  0  0  0  0  0  0  0  0  0  0
  -12.6083  -33.9086   20.8063 S   0  0  0  0  0  0  0  0  0  0  0  0
  -12.2373  -33.6861   22.4772 C   0  0  0  0  0  0  0  0  0  0  0  0
  -12.8288  -32.8003   23.4250 C   0  0  0  0  0  0  0  0  0  0  0  0
  -11.3513  -27.5473   26.0670 C   0  0  0  0  0  0  0  0  0  0  0  0
  -12.6528  -24.3230   26.1689 H   0  0  0  0  0  0  0  0  0  0  0  0
  -14.7302  -25.4319   25.3855 H   0  0  0  0  0  0  0  0  0  0  0  0
  -14.7808  -27.8163   25.5148 H   0  0  0  0  0  0  0  0  0  0  0  0
  -15.8503  -31.7213   27.0593 H   0  0  0  0  0  0  0  0  0  0  0  0
  -13.8430  -33.4840   26.6778 H   0  0  0  0  0  0  0  0  0  0  0  0
  -10.8546  -33.7618   26.0058 H   0  0  0  0  0  0  0  0  0  0  0  0
   -9.9595  -35.2547   24.4189 H   0  0  0  0  0  0  0  0  0  0  0  0
  -11.1875  -35.6158   19.7584 H   0  0  0  0  0  0  0  0  0  0  0  0
  -13.6866  -32.2247   23.1017 H   0  0  0  0  0  0  0  0  0  0  0  0
  -10.4581  -28.0232   26.4464 H   0  0  0  0  0  0  0  0  0  0  0  0
  1  2  3  0
  2  3  1  0
  3  4  2  0
  4  5  1  0
  5  6  2  0
  6  7  1  0
  7  8  1  0
  8  9  2  0
  9 10  1  0
 10 11  2  0
 11 12  1  0
 12 13  1  0
 13 14  2  0
 14 15  1  0
 15 16  2  0
 16 17  1  0
 17 18  2  0
 18 19  1  0
 19 20  1  0
 20 21  2  0
  7 22  2  0
 22  3  1  0
 12  8  1  0
 21 13  1  0
 20 16  1  0
  4 23  1  0
  5 24  1  0
  6 25  1  0
 10 26  1  0
 11 27  1  0
 14 28  1  0
 15 29  1  0
 18 30  1  0
 21 31  1  0
 22 32  1  0
M  END
>  <Energy>  (292) 
272.65193984456494

>  <compound_id>  (292) 
12541

>  <target_id>  (292) 
1

>  <reference_id>  (292) 
68

>  <inspiration_ids>  (292) 
[115, 68]

>  <energy_score>  (292) 
114.41559553170293

>  <distance_score>  (292) 
4.21704593595987

>  <path>  (292) 
/opt/xchem-fragalysis-2/maxwin/BulkDock/SCRATCH/511014/C12541-P68/C12541-P68.minimised.mol

>  <scratch_subdir>  (292) 
/opt/xchem-fragalysis-2/maxwin/BulkDock/SCRATCH/511014/C12541-P68

>  <fragmenstein_runtime>  (292) 
12.712387084960938

>  <fragmenstein_outcome>  (292) 
too moved

>  <fragmenstein_mode>  (292) 
expansion

>  <fragmenstein_error>  (292) 


$$$$
C12542-P115
     RDKit          3D

 32 35  0  0  0  0  0  0  0  0999 V2000
  -12.6316  -26.3969   27.3477 O   0  0  0  0  0  0  0  0  0  0  0  0
  -11.7146  -27.3808   27.8000 C   0  0  0  0  0  0  0  0  0  0  0  0
  -11.1417  -28.1616   26.6528 C   0  0  0  0  0  0  0  0  0  0  0  0
  -10.3729  -28.0036   25.5219 C   0  0  0  0  0  0  0  0  0  0  0  0
   -9.8512  -29.3128   25.0315 C   0  0  0  0  0  0  0  0  0  0  0  0
  -10.4758  -30.4196   25.5671 C   0  0  0  0  0  0  0  0  0  0  0  0
  -10.6928  -31.6403   24.7135 C   0  0  0  0  0  0  0  0  0  0  0  0
  -10.4788  -31.5437   23.3961 N   0  0  0  0  0  0  0  0  0  0  0  0
  -11.6348  -32.0306   22.8257 C   0  0  0  0  0  0  0  0  0  0  0  0
  -12.4407  -32.5744   23.8088 C   0  0  0  0  0  0  0  0  0  0  0  0
  -11.5037  -32.7973   24.8282 N   0  0  0  0  0  0  0  0  0  0  0  0
  -11.0040  -34.1716   24.8007 C   0  0  0  0  0  0  0  0  0  0  0  0
  -11.7485  -35.1841   25.4007 C   0  0  0  0  0  0  0  0  0  0  0  0
  -11.2836  -36.5077   25.3538 C   0  0  0  0  0  0  0  0  0  0  0  0
  -10.0905  -36.8304   24.6673 C   0  0  0  0  0  0  0  0  0  0  0  0
   -9.5251  -38.0917   24.5537 N   0  0  0  0  0  0  0  0  0  0  0  0
   -8.4351  -38.0197   23.8229 C   0  0  0  0  0  0  0  0  0  0  0  0
   -8.0058  -36.4695   23.2433 S   0  0  0  0  0  0  0  0  0  0  0  0
   -9.3896  -35.8069   24.0297 C   0  0  0  0  0  0  0  0  0  0  0  0
   -9.8230  -34.4731   24.0823 C   0  0  0  0  0  0  0  0  0  0  0  0
  -11.1918  -29.8420   26.7121 O   0  0  0  0  0  0  0  0  0  0  0  0
  -12.1590  -25.8505   26.6974 H   0  0  0  0  0  0  0  0  0  0  0  0
  -10.9220  -26.8716   28.3567 H   0  0  0  0  0  0  0  0  0  0  0  0
  -12.2530  -28.0404   28.4852 H   0  0  0  0  0  0  0  0  0  0  0  0
  -10.1950  -27.0208   25.1357 H   0  0  0  0  0  0  0  0  0  0  0  0
   -9.2663  -29.5067   24.1383 H   0  0  0  0  0  0  0  0  0  0  0  0
  -11.8188  -31.9371   21.7636 H   0  0  0  0  0  0  0  0  0  0  0  0
  -13.3772  -33.1103   23.7616 H   0  0  0  0  0  0  0  0  0  0  0  0
  -12.6719  -34.9672   25.9319 H   0  0  0  0  0  0  0  0  0  0  0  0
  -11.8395  -37.3018   25.8441 H   0  0  0  0  0  0  0  0  0  0  0  0
   -7.8358  -38.8914   23.5948 H   0  0  0  0  0  0  0  0  0  0  0  0
   -9.2522  -33.7051   23.5642 H   0  0  0  0  0  0  0  0  0  0  0  0
  1  2  1  0
  2  3  1  0
  3  4  2  0
  4  5  1  0
  5  6  2  0
  6  7  1  0
  7  8  2  0
  8  9  1  0
  9 10  2  0
 10 11  1  0
 11 12  1  0
 12 13  2  0
 13 14  1  0
 14 15  2  0
 15 16  1  0
 16 17  2  0
 17 18  1  0
 18 19  1  0
 19 20  2  0
  6 21  1  0
 21  3  1  0
 11  7  1  0
 20 12  1  0
 19 15  1  0
  1 22  1  0
  2 23  1  0
  2 24  1  0
  4 25  1  0
  5 26  1  0
  9 27  1  0
 10 28  1  0
 13 29  1  0
 14 30  1  0
 17 31  1  0
 20 32  1  0
M  END
>  <Energy>  (293) 
168.42486427559373

>  <compound_id>  (293) 
12542

>  <target_id>  (293) 
1

>  <reference_id>  (293) 
115

>  <inspiration_ids>  (293) 
[115, 68]

>  <energy_score>  (293) 
15.24969832665397

>  <distance_score>  (293) 
3.1422030310244673

>  <path>  (293) 
/opt/xchem-fragalysis-2/maxwin/BulkDock/SCRATCH/511014/C12542-P115/C12542-P115.minimised.mol

>  <scratch_subdir>  (293) 
/opt/xchem-fragalysis-2/maxwin/BulkDock/SCRATCH/511014/C12542-P115

>  <fragmenstein_runtime>  (293) 
7.9489545822143555

>  <fragmenstein_outcome>  (293) 
too moved

>  <fragmenstein_mode>  (293) 
expansion

>  <fragmenstein_error>  (293) 


$$$$
C12542-P68
     RDKit          3D

 32 35  0  0  0  0  0  0  0  0999 V2000
   -9.2409  -27.8260   30.1151 O   0  0  0  0  0  0  0  0  0  0  0  0
   -8.6053  -28.6737   29.1931 C   0  0  0  0  0  0  0  0  0  0  0  0
   -9.5515  -28.4877   28.0068 C   0  0  0  0  0  0  0  0  0  0  0  0
  -10.2303  -27.4123   27.4550 C   0  0  0  0  0  0  0  0  0  0  0  0
  -11.2239  -27.8999   26.6736 C   0  0  0  0  0  0  0  0  0  0  0  0
  -11.3308  -29.2543   27.1351 C   0  0  0  0  0  0  0  0  0  0  0  0
  -12.5731  -30.6163   26.4536 C   0  0  0  0  0  0  0  0  0  0  0  0
  -13.9273  -30.4542   26.4661 N   0  0  0  0  0  0  0  0  0  0  0  0
  -14.6205  -31.6225   26.4742 C   0  0  0  0  0  0  0  0  0  0  0  0
  -13.7968  -32.6634   26.2310 C   0  0  0  0  0  0  0  0  0  0  0  0
  -12.5283  -32.1588   25.9461 N   0  0  0  0  0  0  0  0  0  0  0  0
  -11.8144  -33.0174   24.9232 C   0  0  0  0  0  0  0  0  0  0  0  0
  -10.8077  -33.9345   25.2545 C   0  0  0  0  0  0  0  0  0  0  0  0
  -10.2129  -34.8110   24.3340 C   0  0  0  0  0  0  0  0  0  0  0  0
  -10.6580  -34.8220   23.0137 C   0  0  0  0  0  0  0  0  0  0  0  0
  -10.1634  -35.6305   22.0087 N   0  0  0  0  0  0  0  0  0  0  0  0
  -10.8345  -35.4005   20.9064 C   0  0  0  0  0  0  0  0  0  0  0  0
  -12.0611  -34.2088   20.9971 S   0  0  0  0  0  0  0  0  0  0  0  0
  -11.7025  -33.9649   22.6666 C   0  0  0  0  0  0  0  0  0  0  0  0
  -12.3127  -33.0869   23.6024 C   0  0  0  0  0  0  0  0  0  0  0  0
  -10.0484  -29.6043   27.5098 O   0  0  0  0  0  0  0  0  0  0  0  0
   -8.6919  -27.0737   30.3816 H   0  0  0  0  0  0  0  0  0  0  0  0
   -7.5376  -28.4733   29.0099 H   0  0  0  0  0  0  0  0  0  0  0  0
   -8.5414  -29.6084   29.6949 H   0  0  0  0  0  0  0  0  0  0  0  0
  -10.0360  -26.3563   27.5777 H   0  0  0  0  0  0  0  0  0  0  0  0
  -11.9370  -27.3645   26.0642 H   0  0  0  0  0  0  0  0  0  0  0  0
  -15.6918  -31.6465   26.6264 H   0  0  0  0  0  0  0  0  0  0  0  0
  -14.0082  -33.7178   26.1119 H   0  0  0  0  0  0  0  0  0  0  0  0
  -10.3634  -34.0102   26.2343 H   0  0  0  0  0  0  0  0  0  0  0  0
   -9.4079  -35.4735   24.6407 H   0  0  0  0  0  0  0  0  0  0  0  0
  -10.6292  -35.9286   19.9846 H   0  0  0  0  0  0  0  0  0  0  0  0
  -13.1584  -32.4925   23.2757 H   0  0  0  0  0  0  0  0  0  0  0  0
  1  2  1  0
  2  3  1  0
  3  4  2  0
  4  5  1  0
  5  6  2  0
  6  7  1  0
  7  8  2  0
  8  9  1  0
  9 10  2  0
 10 11  1  0
 11 12  1  0
 12 13  2  0
 13 14  1  0
 14 15  2  0
 15 16  1  0
 16 17  2  0
 17 18  1  0
 18 19  1  0
 19 20  2  0
  6 21  1  0
 21  3  1  0
 11  7  1  0
 20 12  1  0
 19 15  1  0
  1 22  1  0
  2 23  1  0
  2 24  1  0
  4 25  1  0
  5 26  1  0
  9 27  1  0
 10 28  1  0
 13 29  1  0
 14 30  1  0
 17 31  1  0
 20 32  1  0
M  END
>  <Energy>  (294) 
243.06270821520431

>  <compound_id>  (294) 
12542

>  <target_id>  (294) 
1

>  <reference_id>  (294) 
68

>  <inspiration_ids>  (294) 
[115, 68]

>  <energy_score>  (294) 
89.88754226626111

>  <distance_score>  (294) 
3.5137586070366016

>  <path>  (294) 
/opt/xchem-fragalysis-2/maxwin/BulkDock/SCRATCH/511014/C12542-P68/C12542-P68.minimised.mol

>  <scratch_subdir>  (294) 
/opt/xchem-fragalysis-2/maxwin/BulkDock/SCRATCH/511014/C12542-P68

>  <fragmenstein_runtime>  (294) 
12.137314081192017

>  <fragmenstein_outcome>  (294) 
too moved

>  <fragmenstein_mode>  (294) 
expansion

>  <fragmenstein_error>  (294) 


$$$$
C12543-P115
     RDKit          3D

 37 39  0  0  0  0  0  0  0  0999 V2000
  -11.4352  -25.0239   25.5086 C   0  0  0  0  0  0  0  0  0  0  0  0
  -11.6951  -26.5375   25.3867 C   0  0  0  0  0  0  0  0  0  0  0  0
  -10.5769  -27.4286   26.0046 C   0  0  0  0  0  0  0  0  0  0  0  0
  -10.5476  -29.0918   25.8005 N   0  0  0  0  0  0  0  0  0  0  0  0
   -9.9766  -29.9929   24.5713 C   0  0  0  0  0  0  0  0  0  0  0  0
   -9.3890  -29.6703   23.5937 O   0  0  0  0  0  0  0  0  0  0  0  0
  -10.4532  -31.4327   24.8623 C   0  0  0  0  0  0  0  0  0  0  0  0
  -10.1361  -32.7256   24.0603 C   0  0  0  0  0  0  0  0  0  0  0  0
  -10.8837  -33.8739   24.4206 C   0  0  0  0  0  0  0  0  0  0  0  0
  -10.4697  -35.1805   24.1085 C   0  0  0  0  0  0  0  0  0  0  0  0
   -9.3039  -35.3762   23.3525 C   0  0  0  0  0  0  0  0  0  0  0  0
   -8.7035  -36.6017   23.0863 N   0  0  0  0  0  0  0  0  0  0  0  0
   -7.6507  -36.4083   22.3267 C   0  0  0  0  0  0  0  0  0  0  0  0
   -7.3373  -34.7914   21.8625 S   0  0  0  0  0  0  0  0  0  0  0  0
   -8.6600  -34.2464   22.8382 C   0  0  0  0  0  0  0  0  0  0  0  0
   -9.0616  -32.9160   23.1771 C   0  0  0  0  0  0  0  0  0  0  0  0
  -10.5569  -26.8763   27.5636 C   0  0  0  0  0  0  0  0  0  0  0  0
   -9.5461  -26.2759   28.1763 N   0  0  0  0  0  0  0  0  0  0  0  0
  -10.0031  -25.8673   29.4001 C   0  0  0  0  0  0  0  0  0  0  0  0
  -11.3117  -26.2242   29.5662 C   0  0  0  0  0  0  0  0  0  0  0  0
  -11.6556  -26.8597   28.4068 N   0  0  0  0  0  0  0  0  0  0  0  0
  -12.3531  -24.4680   25.2918 H   0  0  0  0  0  0  0  0  0  0  0  0
  -10.6559  -24.6883   24.8249 H   0  0  0  0  0  0  0  0  0  0  0  0
  -11.1455  -24.7060   26.5125 H   0  0  0  0  0  0  0  0  0  0  0  0
  -11.9098  -26.8216   24.3653 H   0  0  0  0  0  0  0  0  0  0  0  0
  -12.6388  -26.6622   25.9277 H   0  0  0  0  0  0  0  0  0  0  0  0
   -9.6372  -27.1965   25.5879 H   0  0  0  0  0  0  0  0  0  0  0  0
  -10.9331  -29.7021   26.5256 H   0  0  0  0  0  0  0  0  0  0  0  0
  -11.5492  -31.3667   24.8237 H   0  0  0  0  0  0  0  0  0  0  0  0
  -10.2055  -31.5957   25.9071 H   0  0  0  0  0  0  0  0  0  0  0  0
  -11.7527  -33.7669   25.0690 H   0  0  0  0  0  0  0  0  0  0  0  0
  -11.0139  -36.0386   24.4894 H   0  0  0  0  0  0  0  0  0  0  0  0
   -7.0228  -37.2214   21.9879 H   0  0  0  0  0  0  0  0  0  0  0  0
   -8.4566  -32.0707   22.8493 H   0  0  0  0  0  0  0  0  0  0  0  0
   -9.3674  -25.3389   30.0968 H   0  0  0  0  0  0  0  0  0  0  0  0
  -11.9890  -26.0645   30.3850 H   0  0  0  0  0  0  0  0  0  0  0  0
  -12.5687  -27.2032   28.1531 H   0  0  0  0  0  0  0  0  0  0  0  0
  1  2  1  0
  2  3  1  0
  3  4  1  0
  4  5  1  0
  5  6  2  0
  5  7  1  0
  7  8  1  0
  8  9  2  0
  9 10  1  0
 10 11  2  0
 11 12  1  0
 12 13  2  0
 13 14  1  0
 14 15  1  0
 15 16  2  0
  3 17  1  0
 17 18  2  0
 18 19  1  0
 19 20  2  0
 20 21  1  0
 16  8  1  0
 21 17  1  0
 15 11  1  0
  1 22  1  0
  1 23  1  0
  1 24  1  0
  2 25  1  0
  2 26  1  0
  3 27  1  0
  4 28  1  0
  7 29  1  0
  7 30  1  0
  9 31  1  0
 10 32  1  0
 13 33  1  0
 16 34  1  0
 19 35  1  0
 20 36  1  0
 21 37  1  0
M  END
>  <Energy>  (295) 
93.041179660065055

>  <compound_id>  (295) 
12543

>  <target_id>  (295) 
1

>  <reference_id>  (295) 
115

>  <inspiration_ids>  (295) 
[115, 68]

>  <energy_score>  (295) 
10.18744339512756

>  <distance_score>  (295) 
2.6849437536957383

>  <path>  (295) 
/opt/xchem-fragalysis-2/maxwin/BulkDock/SCRATCH/511014/C12543-P115/C12543-P115.minimised.mol

>  <scratch_subdir>  (295) 
/opt/xchem-fragalysis-2/maxwin/BulkDock/SCRATCH/511014/C12543-P115

>  <fragmenstein_runtime>  (295) 
3.5148181915283203

>  <fragmenstein_outcome>  (295) 
too moved

>  <fragmenstein_mode>  (295) 
expansion

>  <fragmenstein_error>  (295) 


$$$$
C12543-P68
     RDKit          3D

 37 39  0  0  0  0  0  0  0  0999 V2000
  -14.9018  -26.4997   24.8295 C   0  0  0  0  0  0  0  0  0  0  0  0
  -14.2865  -27.4354   25.8421 C   0  0  0  0  0  0  0  0  0  0  0  0
  -12.7348  -28.0501   25.6558 C   0  0  0  0  0  0  0  0  0  0  0  0
  -13.0793  -29.9736   26.0825 N   0  0  0  0  0  0  0  0  0  0  0  0
  -14.3483  -30.8169   25.9475 C   0  0  0  0  0  0  0  0  0  0  0  0
  -15.4693  -30.5007   25.6237 O   0  0  0  0  0  0  0  0  0  0  0  0
  -14.0806  -32.3261   26.1739 C   0  0  0  0  0  0  0  0  0  0  0  0
  -13.4304  -33.1696   25.0588 C   0  0  0  0  0  0  0  0  0  0  0  0
  -12.0497  -33.3605   25.0225 C   0  0  0  0  0  0  0  0  0  0  0  0
  -11.3758  -34.2188   24.1466 C   0  0  0  0  0  0  0  0  0  0  0  0
  -12.1190  -34.9455   23.2213 C   0  0  0  0  0  0  0  0  0  0  0  0
  -11.5973  -35.8491   22.3142 N   0  0  0  0  0  0  0  0  0  0  0  0
  -12.5759  -36.3428   21.5957 C   0  0  0  0  0  0  0  0  0  0  0  0
  -14.1482  -35.7612   21.9517 S   0  0  0  0  0  0  0  0  0  0  0  0
  -13.5034  -34.7548   23.1973 C   0  0  0  0  0  0  0  0  0  0  0  0
  -14.1724  -33.8723   24.0961 C   0  0  0  0  0  0  0  0  0  0  0  0
  -12.0463  -26.6535   26.0792 C   0  0  0  0  0  0  0  0  0  0  0  0
  -12.6579  -25.4733   26.1569 N   0  0  0  0  0  0  0  0  0  0  0  0
  -11.6897  -24.5019   26.3774 C   0  0  0  0  0  0  0  0  0  0  0  0
  -10.4530  -25.0901   26.3308 C   0  0  0  0  0  0  0  0  0  0  0  0
  -10.6985  -26.4207   26.1367 N   0  0  0  0  0  0  0  0  0  0  0  0
  -14.7088  -25.4603   25.0889 H   0  0  0  0  0  0  0  0  0  0  0  0
  -15.9923  -26.6090   24.8250 H   0  0  0  0  0  0  0  0  0  0  0  0
  -14.5440  -26.6936   23.8337 H   0  0  0  0  0  0  0  0  0  0  0  0
  -14.9936  -28.2574   25.8751 H   0  0  0  0  0  0  0  0  0  0  0  0
  -14.3289  -26.9171   26.7902 H   0  0  0  0  0  0  0  0  0  0  0  0
  -11.8369  -28.2369   26.2657 H   0  0  0  0  0  0  0  0  0  0  0  0
  -12.3501  -30.5376   26.4493 H   0  0  0  0  0  0  0  0  0  0  0  0
  -15.0520  -32.7864   26.4042 H   0  0  0  0  0  0  0  0  0  0  0  0
  -13.5267  -32.4270   27.0966 H   0  0  0  0  0  0  0  0  0  0  0  0
  -11.4167  -32.8218   25.6914 H   0  0  0  0  0  0  0  0  0  0  0  0
  -10.2962  -34.3256   24.1892 H   0  0  0  0  0  0  0  0  0  0  0  0
  -12.4089  -37.0745   20.8160 H   0  0  0  0  0  0  0  0  0  0  0  0
  -15.2558  -33.7826   24.0545 H   0  0  0  0  0  0  0  0  0  0  0  0
  -11.9391  -23.4600   26.5288 H   0  0  0  0  0  0  0  0  0  0  0  0
   -9.4679  -24.6728   26.4411 H   0  0  0  0  0  0  0  0  0  0  0  0
  -10.0300  -27.1432   25.9883 H   0  0  0  0  0  0  0  0  0  0  0  0
  1  2  1  0
  2  3  1  0
  3  4  1  0
  4  5  1  0
  5  6  2  0
  5  7  1  0
  7  8  1  0
  8  9  2  0
  9 10  1  0
 10 11  2  0
 11 12  1  0
 12 13  2  0
 13 14  1  0
 14 15  1  0
 15 16  2  0
  3 17  1  0
 17 18  2  0
 18 19  1  0
 19 20  2  0
 20 21  1  0
 16  8  1  0
 21 17  1  0
 15 11  1  0
  1 22  1  0
  1 23  1  0
  1 24  1  0
  2 25  1  0
  2 26  1  0
  3 27  1  0
  4 28  1  0
  7 29  1  0
  7 30  1  0
  9 31  1  0
 10 32  1  0
 13 33  1  0
 16 34  1  0
 19 35  1  0
 20 36  1  0
 21 37  1  0
M  END
>  <Energy>  (296) 
234.31939420261867

>  <compound_id>  (296) 
12543

>  <target_id>  (296) 
1

>  <reference_id>  (296) 
68

>  <inspiration_ids>  (296) 
[115, 68]

>  <energy_score>  (296) 
141.58929884296805

>  <distance_score>  (296) 
5.024276016061346

>  <path>  (296) 
/opt/xchem-fragalysis-2/maxwin/BulkDock/SCRATCH/511014/C12543-P68/C12543-P68.minimised.mol

>  <scratch_subdir>  (296) 
/opt/xchem-fragalysis-2/maxwin/BulkDock/SCRATCH/511014/C12543-P68

>  <fragmenstein_runtime>  (296) 
15.805981874465942

>  <fragmenstein_outcome>  (296) 
too moved

>  <fragmenstein_mode>  (296) 
expansion

>  <fragmenstein_error>  (296) 


$$$$
C12550-P115
     RDKit          3D

 40 42  0  0  0  0  0  0  0  0999 V2000
   -8.6357  -32.2770   23.4894 C   0  0  0  0  0  0  0  0  0  0  0  0
   -9.6363  -31.1370   23.4631 C   0  0  0  0  0  0  0  0  0  0  0  0
   -9.2220  -30.2808   22.2699 C   0  0  0  0  0  0  0  0  0  0  0  0
  -10.8994  -31.8028   23.2260 N   0  0  0  0  0  0  0  0  0  0  0  0
  -11.4520  -32.4891   21.9495 C   0  0  0  0  0  0  0  0  0  0  0  0
  -11.0054  -32.5552   20.8708 O   0  0  0  0  0  0  0  0  0  0  0  0
  -12.7164  -33.2245   22.3211 C   0  0  0  0  0  0  0  0  0  0  0  0
  -12.4985  -34.2596   23.4286 C   0  0  0  0  0  0  0  0  0  0  0  0
  -11.2201  -35.0806   23.5059 C   0  0  0  0  0  0  0  0  0  0  0  0
  -10.8707  -35.6041   24.7587 C   0  0  0  0  0  0  0  0  0  0  0  0
   -9.7108  -36.3656   24.9417 C   0  0  0  0  0  0  0  0  0  0  0  0
   -8.8469  -36.5987   23.8585 C   0  0  0  0  0  0  0  0  0  0  0  0
   -7.6509  -37.2994   23.9102 N   0  0  0  0  0  0  0  0  0  0  0  0
   -7.1211  -37.3330   22.7091 C   0  0  0  0  0  0  0  0  0  0  0  0
   -7.9862  -36.5361   21.4665 S   0  0  0  0  0  0  0  0  0  0  0  0
   -9.2067  -36.1004   22.6051 C   0  0  0  0  0  0  0  0  0  0  0  0
  -10.3998  -35.3720   22.4021 C   0  0  0  0  0  0  0  0  0  0  0  0
   -9.6982  -30.2760   24.7412 C   0  0  0  0  0  0  0  0  0  0  0  0
  -10.7289  -29.7171   25.3406 N   0  0  0  0  0  0  0  0  0  0  0  0
  -10.3718  -28.3931   25.5414 C   0  0  0  0  0  0  0  0  0  0  0  0
   -9.0509  -28.4508   25.7535 C   0  0  0  0  0  0  0  0  0  0  0  0
   -8.6199  -29.6150   25.2171 N   0  0  0  0  0  0  0  0  0  0  0  0
   -7.6032  -31.9300   23.5397 H   0  0  0  0  0  0  0  0  0  0  0  0
   -8.8821  -32.9453   24.3117 H   0  0  0  0  0  0  0  0  0  0  0  0
   -8.6842  -32.8843   22.5762 H   0  0  0  0  0  0  0  0  0  0  0  0
   -9.2982  -30.8538   21.3489 H   0  0  0  0  0  0  0  0  0  0  0  0
   -8.1803  -29.9560   22.3562 H   0  0  0  0  0  0  0  0  0  0  0  0
   -9.8355  -29.3919   22.1459 H   0  0  0  0  0  0  0  0  0  0  0  0
  -11.5811  -31.8697   23.9668 H   0  0  0  0  0  0  0  0  0  0  0  0
  -13.0745  -33.7367   21.4190 H   0  0  0  0  0  0  0  0  0  0  0  0
  -13.4909  -32.5031   22.6039 H   0  0  0  0  0  0  0  0  0  0  0  0
  -13.3358  -34.9696   23.3922 H   0  0  0  0  0  0  0  0  0  0  0  0
  -12.6079  -33.7312   24.3862 H   0  0  0  0  0  0  0  0  0  0  0  0
  -11.5056  -35.4237   25.6258 H   0  0  0  0  0  0  0  0  0  0  0  0
   -9.4654  -36.7672   25.9197 H   0  0  0  0  0  0  0  0  0  0  0  0
   -6.1872  -37.8385   22.5027 H   0  0  0  0  0  0  0  0  0  0  0  0
  -10.6457  -35.0290   21.4016 H   0  0  0  0  0  0  0  0  0  0  0  0
  -11.0428  -27.5750   25.7681 H   0  0  0  0  0  0  0  0  0  0  0  0
   -8.4255  -27.7641   26.2670 H   0  0  0  0  0  0  0  0  0  0  0  0
   -7.6591  -29.8919   25.0613 H   0  0  0  0  0  0  0  0  0  0  0  0
  1  2  1  0
  2  3  1  0
  2  4  1  0
  4  5  1  0
  5  6  2  0
  5  7  1  0
  7  8  1  0
  8  9  1  0
  9 10  2  0
 10 11  1  0
 11 12  2  0
 12 13  1  0
 13 14  2  0
 14 15  1  0
 15 16  1  0
 16 17  2  0
  2 18  1  0
 18 19  2  0
 19 20  1  0
 20 21  2  0
 21 22  1  0
 17  9  1  0
 22 18  1  0
 16 12  1  0
  1 23  1  0
  1 24  1  0
  1 25  1  0
  3 26  1  0
  3 27  1  0
  3 28  1  0
  4 29  1  0
  7 30  1  0
  7 31  1  0
  8 32  1  0
  8 33  1  0
 10 34  1  0
 11 35  1  0
 14 36  1  0
 17 37  1  0
 20 38  1  0
 21 39  1  0
 22 40  1  0
M  END
>  <Energy>  (297) 
50.481279171573028

>  <compound_id>  (297) 
12550

>  <target_id>  (297) 
1

>  <reference_id>  (297) 
115

>  <inspiration_ids>  (297) 
[115, 68]

>  <energy_score>  (297) 
-33.36017363358758

>  <distance_score>  (297) 
3.86227152694437

>  <path>  (297) 
/opt/xchem-fragalysis-2/maxwin/BulkDock/SCRATCH/511014/C12550-P115/C12550-P115.minimised.mol

>  <scratch_subdir>  (297) 
/opt/xchem-fragalysis-2/maxwin/BulkDock/SCRATCH/511014/C12550-P115

>  <fragmenstein_runtime>  (297) 
3.222109317779541

>  <fragmenstein_outcome>  (297) 
too moved

>  <fragmenstein_mode>  (297) 
expansion

>  <fragmenstein_error>  (297) 


$$$$
C12550-P68
     RDKit          3D

 40 42  0  0  0  0  0  0  0  0999 V2000
   -9.0879  -30.7733   31.0901 C   0  0  0  0  0  0  0  0  0  0  0  0
   -8.6507  -29.3547   29.6125 C   0  0  0  0  0  0  0  0  0  0  0  0
   -7.1472  -28.8250   29.0837 C   0  0  0  0  0  0  0  0  0  0  0  0
   -9.6686  -29.9781   28.0355 N   0  0  0  0  0  0  0  0  0  0  0  0
  -10.0958  -30.9111   27.5525 C   0  0  0  0  0  0  0  0  0  0  0  0
   -9.5073  -32.0945   28.5152 O   0  0  0  0  0  0  0  0  0  0  0  0
  -11.3723  -31.7361   26.2131 C   0  0  0  0  0  0  0  0  0  0  0  0
  -12.9676  -31.9007   26.1497 C   0  0  0  0  0  0  0  0  0  0  0  0
  -13.2702  -33.1320   25.2072 C   0  0  0  0  0  0  0  0  0  0  0  0
  -13.7878  -34.2943   25.7911 C   0  0  0  0  0  0  0  0  0  0  0  0
  -13.5526  -35.5577   25.2211 C   0  0  0  0  0  0  0  0  0  0  0  0
  -12.7594  -35.6768   24.0621 C   0  0  0  0  0  0  0  0  0  0  0  0
  -12.3069  -36.8577   23.4937 N   0  0  0  0  0  0  0  0  0  0  0  0
  -11.5565  -36.5839   22.4505 C   0  0  0  0  0  0  0  0  0  0  0  0
  -11.3877  -34.9277   22.0488 S   0  0  0  0  0  0  0  0  0  0  0  0
  -12.3561  -34.5093   23.4176 C   0  0  0  0  0  0  0  0  0  0  0  0
  -12.6808  -33.2308   23.9195 C   0  0  0  0  0  0  0  0  0  0  0  0
   -9.1233  -27.6833   30.2147 C   0  0  0  0  0  0  0  0  0  0  0  0
   -9.7762  -27.2735   31.3323 N   0  0  0  0  0  0  0  0  0  0  0  0
   -9.2278  -25.8225   31.9116 C   0  0  0  0  0  0  0  0  0  0  0  0
   -8.3460  -25.4629   31.0014 C   0  0  0  0  0  0  0  0  0  0  0  0
   -8.1272  -26.5728   30.2998 N   0  0  0  0  0  0  0  0  0  0  0  0
   -9.3809  -31.8256   30.8100 H   0  0  0  0  0  0  0  0  0  0  0  0
   -8.3327  -30.8358   31.9353 H   0  0  0  0  0  0  0  0  0  0  0  0
   -9.8878  -30.6420   31.8950 H   0  0  0  0  0  0  0  0  0  0  0  0
   -6.5676  -27.9539   29.3337 H   0  0  0  0  0  0  0  0  0  0  0  0
   -7.1670  -28.6104   28.0163 H   0  0  0  0  0  0  0  0  0  0  0  0
   -6.3828  -29.4870   29.3621 H   0  0  0  0  0  0  0  0  0  0  0  0
   -9.4667  -28.9986   28.0965 H   0  0  0  0  0  0  0  0  0  0  0  0
  -11.2848  -32.8918   26.0902 H   0  0  0  0  0  0  0  0  0  0  0  0
  -10.8032  -32.2835   25.3482 H   0  0  0  0  0  0  0  0  0  0  0  0
  -13.4950  -30.9983   25.8869 H   0  0  0  0  0  0  0  0  0  0  0  0
  -13.4136  -32.1396   27.1159 H   0  0  0  0  0  0  0  0  0  0  0  0
  -14.2747  -34.2522   26.7646 H   0  0  0  0  0  0  0  0  0  0  0  0
  -13.8968  -36.4583   25.7209 H   0  0  0  0  0  0  0  0  0  0  0  0
  -11.0812  -37.3591   21.8637 H   0  0  0  0  0  0  0  0  0  0  0  0
  -12.2769  -32.3683   23.4028 H   0  0  0  0  0  0  0  0  0  0  0  0
   -9.7932  -25.2273   32.6079 H   0  0  0  0  0  0  0  0  0  0  0  0
   -8.3576  -24.6122   30.4258 H   0  0  0  0  0  0  0  0  0  0  0  0
   -7.1720  -26.6730   30.0311 H   0  0  0  0  0  0  0  0  0  0  0  0
  1  2  1  0
  2  3  1  0
  2  4  1  0
  4  5  1  0
  5  6  2  0
  5  7  1  0
  7  8  1  0
  8  9  1  0
  9 10  2  0
 10 11  1  0
 11 12  2  0
 12 13  1  0
 13 14  2  0
 14 15  1  0
 15 16  1  0
 16 17  2  0
  2 18  1  0
 18 19  2  0
 19 20  1  0
 20 21  2  0
 21 22  1  0
 17  9  1  0
 22 18  1  0
 16 12  1  0
  1 23  1  0
  1 24  1  0
  1 25  1  0
  3 26  1  0
  3 27  1  0
  3 28  1  0
  4 29  1  0
  7 30  1  0
  7 31  1  0
  8 32  1  0
  8 33  1  0
 10 34  1  0
 11 35  1  0
 14 36  1  0
 17 37  1  0
 20 38  1  0
 21 39  1  0
 22 40  1  0
M  END
>  <Energy>  (298) 
628.40117016002796

>  <compound_id>  (298) 
12550

>  <target_id>  (298) 
1

>  <reference_id>  (298) 
68

>  <inspiration_ids>  (298) 
[115, 68]

>  <energy_score>  (298) 
549.748414958643

>  <distance_score>  (298) 
3.757681169558138

>  <path>  (298) 
/opt/xchem-fragalysis-2/maxwin/BulkDock/SCRATCH/511014/C12550-P68/C12550-P68.minimised.mol

>  <scratch_subdir>  (298) 
/opt/xchem-fragalysis-2/maxwin/BulkDock/SCRATCH/511014/C12550-P68

>  <fragmenstein_runtime>  (298) 
7.485308885574341

>  <fragmenstein_outcome>  (298) 
too moved

>  <fragmenstein_mode>  (298) 
expansion

>  <fragmenstein_error>  (298) 


$$$$
C12538-P115
     RDKit          3D

 38 40  0  0  0  0  0  0  0  0999 V2000
  -10.5445  -25.1587   30.9145 C   0  0  0  0  0  0  0  0  0  0  0  0
  -11.3095  -24.7596   29.6613 C   0  0  0  0  0  0  0  0  0  0  0  0
  -11.5634  -25.8577   28.7543 N   0  0  0  0  0  0  0  0  0  0  0  0
  -12.0220  -27.0963   29.0813 C   0  0  0  0  0  0  0  0  0  0  0  0
  -11.9993  -27.9275   28.0652 N   0  0  0  0  0  0  0  0  0  0  0  0
  -11.4389  -27.1906   27.0311 C   0  0  0  0  0  0  0  0  0  0  0  0
  -10.6253  -27.8508   25.5749 S   0  0  0  0  0  0  0  0  0  0  0  0
  -11.2457  -27.1398   24.4840 O   0  0  0  0  0  0  0  0  0  0  0  0
   -9.3265  -27.4899   26.0531 O   0  0  0  0  0  0  0  0  0  0  0  0
  -10.2036  -29.5281   25.2310 N   0  0  0  0  0  0  0  0  0  0  0  0
  -10.8683  -30.8306   24.8933 C   0  0  0  0  0  0  0  0  0  0  0  0
  -11.3352  -31.3869   26.2088 C   0  0  0  0  0  0  0  0  0  0  0  0
  -10.1063  -31.8795   24.0571 C   0  0  0  0  0  0  0  0  0  0  0  0
  -10.6334  -33.1875   23.9425 C   0  0  0  0  0  0  0  0  0  0  0  0
   -9.9852  -34.2071   23.2363 C   0  0  0  0  0  0  0  0  0  0  0  0
   -8.7842  -33.9230   22.5738 C   0  0  0  0  0  0  0  0  0  0  0  0
   -8.0055  -34.8450   21.8937 N   0  0  0  0  0  0  0  0  0  0  0  0
   -6.9481  -34.2327   21.4111 C   0  0  0  0  0  0  0  0  0  0  0  0
   -6.8550  -32.5439   21.6725 S   0  0  0  0  0  0  0  0  0  0  0  0
   -8.3065  -32.6101   22.5990 C   0  0  0  0  0  0  0  0  0  0  0  0
   -8.9583  -31.5769   23.3141 C   0  0  0  0  0  0  0  0  0  0  0  0
  -11.2694  -25.8698   27.4238 C   0  0  0  0  0  0  0  0  0  0  0  0
  -10.3835  -24.2881   31.5569 H   0  0  0  0  0  0  0  0  0  0  0  0
   -9.5699  -25.5864   30.6599 H   0  0  0  0  0  0  0  0  0  0  0  0
  -11.0928  -25.8975   31.5051 H   0  0  0  0  0  0  0  0  0  0  0  0
  -10.7513  -24.0021   29.1034 H   0  0  0  0  0  0  0  0  0  0  0  0
  -12.2698  -24.3218   29.9245 H   0  0  0  0  0  0  0  0  0  0  0  0
  -12.2889  -27.3724   30.0830 H   0  0  0  0  0  0  0  0  0  0  0  0
   -9.2085  -29.6534   25.4572 H   0  0  0  0  0  0  0  0  0  0  0  0
  -11.7920  -30.7923   24.3474 H   0  0  0  0  0  0  0  0  0  0  0  0
  -10.4465  -31.5687   26.7821 H   0  0  0  0  0  0  0  0  0  0  0  0
  -11.9741  -32.2504   26.0365 H   0  0  0  0  0  0  0  0  0  0  0  0
  -11.9193  -30.7431   26.8685 H   0  0  0  0  0  0  0  0  0  0  0  0
  -11.5713  -33.4569   24.4224 H   0  0  0  0  0  0  0  0  0  0  0  0
  -10.3927  -35.2120   23.2051 H   0  0  0  0  0  0  0  0  0  0  0  0
   -6.1752  -34.7536   20.8623 H   0  0  0  0  0  0  0  0  0  0  0  0
   -8.5365  -30.5756   23.3132 H   0  0  0  0  0  0  0  0  0  0  0  0
  -10.8263  -25.0260   26.9140 H   0  0  0  0  0  0  0  0  0  0  0  0
  1  2  1  0
  2  3  1  0
  3  4  1  0
  4  5  2  0
  5  6  1  0
  6  7  1  0
  7  8  2  0
  7  9  2  0
  7 10  1  0
 10 11  1  0
 11 12  1  0
 11 13  1  0
 13 14  2  0
 14 15  1  0
 15 16  2  0
 16 17  1  0
 17 18  2  0
 18 19  1  0
 19 20  1  0
 20 21  2  0
  6 22  2  0
 22  3  1  0
 21 13  1  0
 20 16  1  0
  1 23  1  0
  1 24  1  0
  1 25  1  0
  2 26  1  0
  2 27  1  0
  4 28  1  0
 10 29  1  0
 11 30  1  0
 12 31  1  0
 12 32  1  0
 12 33  1  0
 14 34  1  0
 15 35  1  0
 18 36  1  0
 21 37  1  0
 22 38  1  0
M  END
>  <Energy>  (299) 
80.069372267257336

>  <compound_id>  (299) 
12538

>  <target_id>  (299) 
1

>  <reference_id>  (299) 
115

>  <inspiration_ids>  (299) 
[115, 68]

>  <energy_score>  (299) 
-21.503686639463922

>  <distance_score>  (299) 
3.497032173131713

>  <path>  (299) 
/opt/xchem-fragalysis-2/maxwin/BulkDock/SCRATCH/511014/C12538-P115/C12538-P115.minimised.mol

>  <scratch_subdir>  (299) 
/opt/xchem-fragalysis-2/maxwin/BulkDock/SCRATCH/511014/C12538-P115

>  <fragmenstein_runtime>  (299) 
3.53985857963562

>  <fragmenstein_outcome>  (299) 
too moved

>  <fragmenstein_mode>  (299) 
expansion

>  <fragmenstein_error>  (299) 


$$$$
C12538-P68
     RDKit          3D

 38 40  0  0  0  0  0  0  0  0999 V2000
   -6.2766  -28.3992   28.9172 C   0  0  0  0  0  0  0  0  0  0  0  0
   -6.3910  -27.1459   29.7427 C   0  0  0  0  0  0  0  0  0  0  0  0
   -7.9035  -26.8500   30.1944 N   0  0  0  0  0  0  0  0  0  0  0  0
   -8.4003  -25.6438   30.1703 C   0  0  0  0  0  0  0  0  0  0  0  0
   -9.4063  -25.6015   28.8705 N   0  0  0  0  0  0  0  0  0  0  0  0
   -9.9930  -27.2042   28.7528 C   0  0  0  0  0  0  0  0  0  0  0  0
  -10.5062  -28.0149   27.2359 S   0  0  0  0  0  0  0  0  0  0  0  0
  -10.8191  -27.1233   26.1507 O   0  0  0  0  0  0  0  0  0  0  0  0
   -9.3370  -28.8710   27.2662 O   0  0  0  0  0  0  0  0  0  0  0  0
  -11.3175  -29.3780   27.2298 N   0  0  0  0  0  0  0  0  0  0  0  0
  -12.6080  -30.7605   26.4489 C   0  0  0  0  0  0  0  0  0  0  0  0
  -14.1739  -30.7439   26.6284 C   0  0  0  0  0  0  0  0  0  0  0  0
  -12.4636  -32.4663   25.8430 C   0  0  0  0  0  0  0  0  0  0  0  0
  -13.5278  -33.3729   26.1538 C   0  0  0  0  0  0  0  0  0  0  0  0
  -13.6164  -34.7209   25.7017 C   0  0  0  0  0  0  0  0  0  0  0  0
  -12.5935  -35.2880   24.9282 C   0  0  0  0  0  0  0  0  0  0  0  0
  -12.4902  -36.5987   24.4944 N   0  0  0  0  0  0  0  0  0  0  0  0
  -11.3668  -36.7566   23.8281 C   0  0  0  0  0  0  0  0  0  0  0  0
  -10.3837  -35.3656   23.6641 S   0  0  0  0  0  0  0  0  0  0  0  0
  -11.5338  -34.4667   24.5923 C   0  0  0  0  0  0  0  0  0  0  0  0
  -11.4728  -33.1076   25.0116 C   0  0  0  0  0  0  0  0  0  0  0  0
   -9.1639  -27.8739   29.8458 C   0  0  0  0  0  0  0  0  0  0  0  0
   -6.3708  -28.2446   27.8481 H   0  0  0  0  0  0  0  0  0  0  0  0
   -7.0066  -29.0958   29.2662 H   0  0  0  0  0  0  0  0  0  0  0  0
   -5.3311  -28.9175   29.0441 H   0  0  0  0  0  0  0  0  0  0  0  0
   -5.8972  -26.2443   29.4835 H   0  0  0  0  0  0  0  0  0  0  0  0
   -5.7328  -27.2433   30.6136 H   0  0  0  0  0  0  0  0  0  0  0  0
   -8.5105  -24.9679   31.0017 H   0  0  0  0  0  0  0  0  0  0  0  0
  -10.4206  -29.9327   27.1502 H   0  0  0  0  0  0  0  0  0  0  0  0
  -12.6856  -30.2998   25.5482 H   0  0  0  0  0  0  0  0  0  0  0  0
  -14.6059  -29.7811   26.3826 H   0  0  0  0  0  0  0  0  0  0  0  0
  -14.6938  -31.3303   25.8579 H   0  0  0  0  0  0  0  0  0  0  0  0
  -14.5217  -31.1365   27.5870 H   0  0  0  0  0  0  0  0  0  0  0  0
  -14.3324  -33.1051   26.8374 H   0  0  0  0  0  0  0  0  0  0  0  0
  -14.4569  -35.3404   26.0041 H   0  0  0  0  0  0  0  0  0  0  0  0
  -11.0775  -37.7086   23.4014 H   0  0  0  0  0  0  0  0  0  0  0  0
  -10.5503  -32.6670   24.6602 H   0  0  0  0  0  0  0  0  0  0  0  0
   -8.7728  -28.8749   29.8141 H   0  0  0  0  0  0  0  0  0  0  0  0
  1  2  1  0
  2  3  1  0
  3  4  1  0
  4  5  2  0
  5  6  1  0
  6  7  1  0
  7  8  2  0
  7  9  2  0
  7 10  1  0
 10 11  1  0
 11 12  1  0
 11 13  1  0
 13 14  2  0
 14 15  1  0
 15 16  2  0
 16 17  1  0
 17 18  2  0
 18 19  1  0
 19 20  1  0
 20 21  2  0
  6 22  2  0
 22  3  1  0
 21 13  1  0
 20 16  1  0
  1 23  1  0
  1 24  1  0
  1 25  1  0
  2 26  1  0
  2 27  1  0
  4 28  1  0
 10 29  1  0
 11 30  1  0
 12 31  1  0
 12 32  1  0
 12 33  1  0
 14 34  1  0
 15 35  1  0
 18 36  1  0
 21 37  1  0
 22 38  1  0
M  END
>  <Energy>  (300) 
420.8307963558658

>  <compound_id>  (300) 
12538

>  <target_id>  (300) 
1

>  <reference_id>  (300) 
68

>  <inspiration_ids>  (300) 
[115, 68]

>  <energy_score>  (300) 
319.2577374491453

>  <distance_score>  (300) 
4.003647574722482

>  <path>  (300) 
/opt/xchem-fragalysis-2/maxwin/BulkDock/SCRATCH/511014/C12538-P68/C12538-P68.minimised.mol

>  <scratch_subdir>  (300) 
/opt/xchem-fragalysis-2/maxwin/BulkDock/SCRATCH/511014/C12538-P68

>  <fragmenstein_runtime>  (300) 
8.394665002822876

>  <fragmenstein_outcome>  (300) 
too moved

>  <fragmenstein_mode>  (300) 
expansion

>  <fragmenstein_error>  (300) 


$$$$
C12551-P115
     RDKit          3D

 41 43  0  0  0  0  0  0  0  0999 V2000
  -11.3442  -31.3963   26.2009 C   0  0  0  0  0  0  0  0  0  0  0  0
  -10.8761  -30.8304   24.8896 C   0  0  0  0  0  0  0  0  0  0  0  0
  -10.2168  -29.5276   25.2407 N   0  0  0  0  0  0  0  0  0  0  0  0
  -10.6335  -27.8453   25.5808 S   0  0  0  0  0  0  0  0  0  0  0  0
   -9.3256  -27.4949   26.0463 O   0  0  0  0  0  0  0  0  0  0  0  0
  -11.2646  -27.1239   24.5046 O   0  0  0  0  0  0  0  0  0  0  0  0
  -11.4241  -27.1871   27.0647 C   0  0  0  0  0  0  0  0  0  0  0  0
  -11.1188  -25.9131   27.5275 C   0  0  0  0  0  0  0  0  0  0  0  0
  -11.3079  -25.9778   28.8794 N   0  0  0  0  0  0  0  0  0  0  0  0
  -10.7084  -25.0549   29.8336 C   0  0  0  0  0  0  0  0  0  0  0  0
  -10.4903  -25.6294   31.2346 C   0  0  0  0  0  0  0  0  0  0  0  0
  -11.4926  -23.7521   29.8999 C   0  0  0  0  0  0  0  0  0  0  0  0
  -11.9428  -27.1529   29.1381 C   0  0  0  0  0  0  0  0  0  0  0  0
  -12.0371  -27.9195   28.0740 N   0  0  0  0  0  0  0  0  0  0  0  0
  -10.1056  -31.8736   24.0532 C   0  0  0  0  0  0  0  0  0  0  0  0
  -10.6245  -33.1845   23.9335 C   0  0  0  0  0  0  0  0  0  0  0  0
   -9.9681  -34.1983   23.2267 C   0  0  0  0  0  0  0  0  0  0  0  0
   -8.7667  -33.9052   22.5692 C   0  0  0  0  0  0  0  0  0  0  0  0
   -7.9798  -34.8211   21.8898 N   0  0  0  0  0  0  0  0  0  0  0  0
   -6.9240  -34.2013   21.4135 C   0  0  0  0  0  0  0  0  0  0  0  0
   -6.8423  -32.5123   21.6784 S   0  0  0  0  0  0  0  0  0  0  0  0
   -8.2971  -32.5894   22.5990 C   0  0  0  0  0  0  0  0  0  0  0  0
   -8.9582  -31.5619   23.3135 C   0  0  0  0  0  0  0  0  0  0  0  0
  -11.9721  -32.2667   26.0234 H   0  0  0  0  0  0  0  0  0  0  0  0
  -10.4560  -31.5701   26.7785 H   0  0  0  0  0  0  0  0  0  0  0  0
  -11.9403  -30.7605   26.8577 H   0  0  0  0  0  0  0  0  0  0  0  0
  -11.7993  -30.7946   24.3429 H   0  0  0  0  0  0  0  0  0  0  0  0
   -9.2157  -29.6457   25.4396 H   0  0  0  0  0  0  0  0  0  0  0  0
  -10.5970  -25.0930   27.0553 H   0  0  0  0  0  0  0  0  0  0  0  0
   -9.7101  -24.8505   29.4265 H   0  0  0  0  0  0  0  0  0  0  0  0
   -9.9631  -26.5886   31.1956 H   0  0  0  0  0  0  0  0  0  0  0  0
  -11.4391  -25.7784   31.7565 H   0  0  0  0  0  0  0  0  0  0  0  0
   -9.8869  -24.9445   31.8404 H   0  0  0  0  0  0  0  0  0  0  0  0
  -12.5451  -23.9523   30.0335 H   0  0  0  0  0  0  0  0  0  0  0  0
  -11.1894  -23.1203   30.7401 H   0  0  0  0  0  0  0  0  0  0  0  0
  -11.3817  -23.1779   28.9735 H   0  0  0  0  0  0  0  0  0  0  0  0
  -12.2236  -27.4591   30.1278 H   0  0  0  0  0  0  0  0  0  0  0  0
  -11.5631  -33.4602   24.4081 H   0  0  0  0  0  0  0  0  0  0  0  0
  -10.3699  -35.2053   23.1913 H   0  0  0  0  0  0  0  0  0  0  0  0
   -6.1455  -34.7167   20.8678 H   0  0  0  0  0  0  0  0  0  0  0  0
   -8.5465  -30.5566   23.3142 H   0  0  0  0  0  0  0  0  0  0  0  0
  1  2  1  0
  2  3  1  0
  3  4  1  0
  4  5  2  0
  4  6  2  0
  4  7  1  0
  7  8  2  0
  8  9  1  0
  9 10  1  0
 10 11  1  0
 10 12  1  0
  9 13  1  0
 13 14  2  0
  2 15  1  0
 15 16  2  0
 16 17  1  0
 17 18  2  0
 18 19  1  0
 19 20  2  0
 20 21  1  0
 21 22  1  0
 22 23  2  0
 14  7  1  0
 23 15  1  0
 22 18  1  0
  1 24  1  0
  1 25  1  0
  1 26  1  0
  2 27  1  0
  3 28  1  0
  8 29  1  0
 10 30  1  0
 11 31  1  0
 11 32  1  0
 11 33  1  0
 12 34  1  0
 12 35  1  0
 12 36  1  0
 13 37  1  0
 16 38  1  0
 17 39  1  0
 20 40  1  0
 23 41  1  0
M  END
>  <Energy>  (301) 
88.913651892865985

>  <compound_id>  (301) 
12551

>  <target_id>  (301) 
1

>  <reference_id>  (301) 
115

>  <inspiration_ids>  (301) 
[115, 68]

>  <energy_score>  (301) 
-28.613729662636246

>  <distance_score>  (301) 
3.5163564462467867

>  <path>  (301) 
/opt/xchem-fragalysis-2/maxwin/BulkDock/SCRATCH/511014/C12551-P115/C12551-P115.minimised.mol

>  <scratch_subdir>  (301) 
/opt/xchem-fragalysis-2/maxwin/BulkDock/SCRATCH/511014/C12551-P115

>  <fragmenstein_runtime>  (301) 
3.7908153533935547

>  <fragmenstein_outcome>  (301) 
too moved

>  <fragmenstein_mode>  (301) 
expansion

>  <fragmenstein_error>  (301) 


$$$$
C12551-P68
     RDKit          3D

 41 43  0  0  0  0  0  0  0  0999 V2000
  -11.4763  -30.1851   20.0622 C   0  0  0  0  0  0  0  0  0  0  0  0
  -10.7507  -29.8171   21.5039 C   0  0  0  0  0  0  0  0  0  0  0  0
  -10.6095  -27.7888   22.0067 N   0  0  0  0  0  0  0  0  0  0  0  0
  -10.8136  -27.4234   24.4140 S   0  0  0  0  0  0  0  0  0  0  0  0
   -9.5466  -27.8519   24.9315 O   0  0  0  0  0  0  0  0  0  0  0  0
  -12.1037  -27.8394   24.9409 O   0  0  0  0  0  0  0  0  0  0  0  0
  -10.9178  -25.9712   25.4056 C   0  0  0  0  0  0  0  0  0  0  0  0
  -11.7948  -26.1715   26.4011 C   0  0  0  0  0  0  0  0  0  0  0  0
  -10.6251  -26.7036   27.0856 N   0  0  0  0  0  0  0  0  0  0  0  0
  -10.7156  -27.9672   27.8885 C   0  0  0  0  0  0  0  0  0  0  0  0
   -9.5208  -28.8463   27.8863 C   0  0  0  0  0  0  0  0  0  0  0  0
  -11.6837  -28.0385   29.2307 C   0  0  0  0  0  0  0  0  0  0  0  0
   -9.9914  -25.4626   27.0894 C   0  0  0  0  0  0  0  0  0  0  0  0
   -9.9765  -25.0986   25.8363 N   0  0  0  0  0  0  0  0  0  0  0  0
  -11.3170  -31.3562   22.2138 C   0  0  0  0  0  0  0  0  0  0  0  0
  -12.5822  -31.9329   21.9611 C   0  0  0  0  0  0  0  0  0  0  0  0
  -12.9106  -33.2821   22.2550 C   0  0  0  0  0  0  0  0  0  0  0  0
  -11.9599  -34.1473   22.8166 C   0  0  0  0  0  0  0  0  0  0  0  0
  -12.1200  -35.4918   23.1153 N   0  0  0  0  0  0  0  0  0  0  0  0
  -11.0123  -35.9593   23.6451 C   0  0  0  0  0  0  0  0  0  0  0  0
   -9.7517  -34.8301   23.8679 S   0  0  0  0  0  0  0  0  0  0  0  0
  -10.7221  -33.6069   23.1286 C   0  0  0  0  0  0  0  0  0  0  0  0
  -10.4227  -32.2481   22.8510 C   0  0  0  0  0  0  0  0  0  0  0  0
  -10.9982  -31.0402   19.6053 H   0  0  0  0  0  0  0  0  0  0  0  0
  -12.5259  -30.4739   20.1324 H   0  0  0  0  0  0  0  0  0  0  0  0
  -11.6255  -29.3512   19.3832 H   0  0  0  0  0  0  0  0  0  0  0  0
   -9.7392  -30.1110   21.5787 H   0  0  0  0  0  0  0  0  0  0  0  0
   -9.7605  -27.2772   21.8110 H   0  0  0  0  0  0  0  0  0  0  0  0
  -12.7561  -26.6470   26.5426 H   0  0  0  0  0  0  0  0  0  0  0  0
  -11.2475  -28.5236   27.1544 H   0  0  0  0  0  0  0  0  0  0  0  0
   -9.8456  -29.8737   27.8149 H   0  0  0  0  0  0  0  0  0  0  0  0
   -8.9606  -28.9518   27.0061 H   0  0  0  0  0  0  0  0  0  0  0  0
   -8.8722  -28.7180   28.7551 H   0  0  0  0  0  0  0  0  0  0  0  0
  -11.2680  -28.2920   30.2771 H   0  0  0  0  0  0  0  0  0  0  0  0
  -12.5245  -27.4356   29.1199 H   0  0  0  0  0  0  0  0  0  0  0  0
  -12.2816  -28.6266   29.8890 H   0  0  0  0  0  0  0  0  0  0  0  0
   -9.6059  -24.9197   27.9408 H   0  0  0  0  0  0  0  0  0  0  0  0
  -13.3860  -31.3736   21.4964 H   0  0  0  0  0  0  0  0  0  0  0  0
  -13.8975  -33.6663   22.0112 H   0  0  0  0  0  0  0  0  0  0  0  0
  -10.9055  -36.9951   23.9411 H   0  0  0  0  0  0  0  0  0  0  0  0
   -9.5104  -31.8807   23.2763 H   0  0  0  0  0  0  0  0  0  0  0  0
  1  2  1  0
  2  3  1  0
  3  4  1  0
  4  5  2  0
  4  6  2  0
  4  7  1  0
  7  8  2  0
  8  9  1  0
  9 10  1  0
 10 11  1  0
 10 12  1  0
  9 13  1  0
 13 14  2  0
  2 15  1  0
 15 16  2  0
 16 17  1  0
 17 18  2  0
 18 19  1  0
 19 20  2  0
 20 21  1  0
 21 22  1  0
 22 23  2  0
 14  7  1  0
 23 15  1  0
 22 18  1  0
  1 24  1  0
  1 25  1  0
  1 26  1  0
  2 27  1  0
  3 28  1  0
  8 29  1  0
 10 30  1  0
 11 31  1  0
 11 32  1  0
 11 33  1  0
 12 34  1  0
 12 35  1  0
 12 36  1  0
 13 37  1  0
 16 38  1  0
 17 39  1  0
 20 40  1  0
 23 41  1  0
M  END
>  <Energy>  (302) 
540.2088903909995

>  <compound_id>  (302) 
12551

>  <target_id>  (302) 
1

>  <reference_id>  (302) 
68

>  <inspiration_ids>  (302) 
[115, 68]

>  <energy_score>  (302) 
422.6815088354973

>  <distance_score>  (302) 
4.491152162554743

>  <path>  (302) 
/opt/xchem-fragalysis-2/maxwin/BulkDock/SCRATCH/511014/C12551-P68/C12551-P68.minimised.mol

>  <scratch_subdir>  (302) 
/opt/xchem-fragalysis-2/maxwin/BulkDock/SCRATCH/511014/C12551-P68

>  <fragmenstein_runtime>  (302) 
12.103649854660034

>  <fragmenstein_outcome>  (302) 
too moved

>  <fragmenstein_mode>  (302) 
expansion

>  <fragmenstein_error>  (302) 


$$$$
C12552-P115
     RDKit          3D

 41 43  0  0  0  0  0  0  0  0999 V2000
  -11.6482  -24.2742   32.9228 C   0  0  0  0  0  0  0  0  0  0  0  0
  -10.5444  -24.3139   31.8915 C   0  0  0  0  0  0  0  0  0  0  0  0
   -9.2758  -24.4814   32.7154 C   0  0  0  0  0  0  0  0  0  0  0  0
  -10.6371  -25.2928   30.8108 N   0  0  0  0  0  0  0  0  0  0  0  0
  -10.0127  -26.5030   30.8383 C   0  0  0  0  0  0  0  0  0  0  0  0
  -10.0496  -27.0923   29.6747 N   0  0  0  0  0  0  0  0  0  0  0  0
  -10.8142  -26.3243   28.8339 C   0  0  0  0  0  0  0  0  0  0  0  0
  -11.6026  -27.0512   27.3955 S   0  0  0  0  0  0  0  0  0  0  0  0
  -12.2900  -28.1749   28.0162 O   0  0  0  0  0  0  0  0  0  0  0  0
  -12.3948  -25.9358   26.9023 O   0  0  0  0  0  0  0  0  0  0  0  0
  -10.7358  -27.5955   25.9451 N   0  0  0  0  0  0  0  0  0  0  0  0
  -10.0168  -28.9861   25.4145 C   0  0  0  0  0  0  0  0  0  0  0  0
  -10.3351  -30.4688   25.7888 C   0  0  0  0  0  0  0  0  0  0  0  0
  -10.4990  -31.5261   24.6899 C   0  0  0  0  0  0  0  0  0  0  0  0
  -11.5598  -32.4377   24.7478 C   0  0  0  0  0  0  0  0  0  0  0  0
  -11.5521  -33.6119   23.9776 C   0  0  0  0  0  0  0  0  0  0  0  0
  -10.4644  -33.8922   23.1265 C   0  0  0  0  0  0  0  0  0  0  0  0
  -10.2777  -35.0570   22.3936 N   0  0  0  0  0  0  0  0  0  0  0  0
   -9.1479  -34.9736   21.7281 C   0  0  0  0  0  0  0  0  0  0  0  0
   -8.2676  -33.5172   21.8959 S   0  0  0  0  0  0  0  0  0  0  0  0
   -9.4544  -32.9370   23.0062 C   0  0  0  0  0  0  0  0  0  0  0  0
   -9.4701  -31.7399   23.7506 C   0  0  0  0  0  0  0  0  0  0  0  0
  -11.1655  -25.1622   29.5331 C   0  0  0  0  0  0  0  0  0  0  0  0
  -11.3271  -23.8173   33.8676 H   0  0  0  0  0  0  0  0  0  0  0  0
  -12.4346  -23.6146   32.5640 H   0  0  0  0  0  0  0  0  0  0  0  0
  -11.9969  -25.2784   33.1538 H   0  0  0  0  0  0  0  0  0  0  0  0
  -10.5574  -23.3346   31.4145 H   0  0  0  0  0  0  0  0  0  0  0  0
   -9.1057  -23.5710   33.3010 H   0  0  0  0  0  0  0  0  0  0  0  0
   -8.4035  -24.6778   32.0969 H   0  0  0  0  0  0  0  0  0  0  0  0
   -9.3578  -25.3164   33.4233 H   0  0  0  0  0  0  0  0  0  0  0  0
   -9.5158  -26.9083   31.7113 H   0  0  0  0  0  0  0  0  0  0  0  0
  -11.4920  -27.4716   25.2518 H   0  0  0  0  0  0  0  0  0  0  0  0
   -8.9485  -28.8383   25.5899 H   0  0  0  0  0  0  0  0  0  0  0  0
  -10.1648  -28.9486   24.3469 H   0  0  0  0  0  0  0  0  0  0  0  0
   -9.4266  -30.8181   26.2672 H   0  0  0  0  0  0  0  0  0  0  0  0
  -11.0865  -30.5985   26.5761 H   0  0  0  0  0  0  0  0  0  0  0  0
  -12.3713  -32.2885   25.4562 H   0  0  0  0  0  0  0  0  0  0  0  0
  -12.3522  -34.3388   24.0738 H   0  0  0  0  0  0  0  0  0  0  0  0
   -8.7914  -35.7740   21.0937 H   0  0  0  0  0  0  0  0  0  0  0  0
   -8.6341  -31.0482   23.6743 H   0  0  0  0  0  0  0  0  0  0  0  0
  -11.7953  -24.3272   29.2586 H   0  0  0  0  0  0  0  0  0  0  0  0
  1  2  1  0
  2  3  1  0
  2  4  1  0
  4  5  1  0
  5  6  2  0
  6  7  1  0
  7  8  1  0
  8  9  2  0
  8 10  2  0
  8 11  1  0
 11 12  1  0
 12 13  1  0
 13 14  1  0
 14 15  2  0
 15 16  1  0
 16 17  2  0
 17 18  1  0
 18 19  2  0
 19 20  1  0
 20 21  1  0
 21 22  2  0
  7 23  2  0
 23  4  1  0
 22 14  1  0
 21 17  1  0
  1 24  1  0
  1 25  1  0
  1 26  1  0
  2 27  1  0
  3 28  1  0
  3 29  1  0
  3 30  1  0
  5 31  1  0
 11 32  1  0
 12 33  1  0
 12 34  1  0
 13 35  1  0
 13 36  1  0
 15 37  1  0
 16 38  1  0
 19 39  1  0
 22 40  1  0
 23 41  1  0
M  END
>  <Energy>  (303) 
121.940944219108

>  <compound_id>  (303) 
12552

>  <target_id>  (303) 
1

>  <reference_id>  (303) 
115

>  <inspiration_ids>  (303) 
[115, 68]

>  <energy_score>  (303) 
-144.0106681677637

>  <distance_score>  (303) 
3.389089427407402

>  <path>  (303) 
/opt/xchem-fragalysis-2/maxwin/BulkDock/SCRATCH/511014/C12552-P115/C12552-P115.minimised.mol

>  <scratch_subdir>  (303) 
/opt/xchem-fragalysis-2/maxwin/BulkDock/SCRATCH/511014/C12552-P115

>  <fragmenstein_runtime>  (303) 
5.323007822036743

>  <fragmenstein_outcome>  (303) 
too moved

>  <fragmenstein_mode>  (303) 
expansion

>  <fragmenstein_error>  (303) 


$$$$
C12552-P68
     RDKit          3D

 41 43  0  0  0  0  0  0  0  0999 V2000
  -12.7163  -21.7210   26.0330 C   0  0  0  0  0  0  0  0  0  0  0  0
  -11.7959  -22.2195   27.1919 C   0  0  0  0  0  0  0  0  0  0  0  0
  -11.9381  -21.7936   28.6778 C   0  0  0  0  0  0  0  0  0  0  0  0
  -11.2386  -23.5720   26.9931 N   0  0  0  0  0  0  0  0  0  0  0  0
   -9.9849  -23.9465   27.3853 C   0  0  0  0  0  0  0  0  0  0  0  0
   -9.5603  -24.9616   26.6879 N   0  0  0  0  0  0  0  0  0  0  0  0
  -10.6515  -25.6080   26.2267 C   0  0  0  0  0  0  0  0  0  0  0  0
  -10.6334  -27.4168   25.8276 S   0  0  0  0  0  0  0  0  0  0  0  0
  -11.9375  -27.4892   25.2158 O   0  0  0  0  0  0  0  0  0  0  0  0
  -10.4327  -28.0236   27.1357 O   0  0  0  0  0  0  0  0  0  0  0  0
   -9.1148  -28.2147   24.5632 N   0  0  0  0  0  0  0  0  0  0  0  0
   -8.7392  -29.8356   23.3371 C   0  0  0  0  0  0  0  0  0  0  0  0
  -10.1165  -31.1377   22.7025 C   0  0  0  0  0  0  0  0  0  0  0  0
  -10.1348  -32.7131   22.6779 C   0  0  0  0  0  0  0  0  0  0  0  0
   -9.8881  -33.5074   23.7938 C   0  0  0  0  0  0  0  0  0  0  0  0
   -9.9049  -34.9095   23.7951 C   0  0  0  0  0  0  0  0  0  0  0  0
  -10.2472  -35.5812   22.6231 C   0  0  0  0  0  0  0  0  0  0  0  0
  -10.2604  -36.9538   22.4559 N   0  0  0  0  0  0  0  0  0  0  0  0
  -10.6629  -37.2334   21.2403 C   0  0  0  0  0  0  0  0  0  0  0  0
  -11.0842  -35.8996   20.2556 S   0  0  0  0  0  0  0  0  0  0  0  0
  -10.6223  -34.8173   21.5175 C   0  0  0  0  0  0  0  0  0  0  0  0
  -10.5981  -33.3973   21.5358 C   0  0  0  0  0  0  0  0  0  0  0  0
  -11.7287  -24.6927   26.3284 C   0  0  0  0  0  0  0  0  0  0  0  0
  -12.1814  -21.7132   25.0768 H   0  0  0  0  0  0  0  0  0  0  0  0
  -13.5910  -22.3385   25.8295 H   0  0  0  0  0  0  0  0  0  0  0  0
  -13.0277  -20.6859   26.1952 H   0  0  0  0  0  0  0  0  0  0  0  0
  -11.0342  -21.4975   27.0014 H   0  0  0  0  0  0  0  0  0  0  0  0
  -12.5273  -20.8878   28.8067 H   0  0  0  0  0  0  0  0  0  0  0  0
  -10.9571  -21.6537   29.1356 H   0  0  0  0  0  0  0  0  0  0  0  0
  -12.4113  -22.5099   29.3193 H   0  0  0  0  0  0  0  0  0  0  0  0
   -9.3835  -23.3812   28.0746 H   0  0  0  0  0  0  0  0  0  0  0  0
   -9.3935  -27.5812   23.7600 H   0  0  0  0  0  0  0  0  0  0  0  0
   -7.8992  -30.3139   23.8215 H   0  0  0  0  0  0  0  0  0  0  0  0
   -8.3804  -29.2404   22.5037 H   0  0  0  0  0  0  0  0  0  0  0  0
  -11.1807  -31.0453   22.9025 H   0  0  0  0  0  0  0  0  0  0  0  0
  -10.2171  -30.8316   21.6341 H   0  0  0  0  0  0  0  0  0  0  0  0
   -9.5893  -33.0642   24.7115 H   0  0  0  0  0  0  0  0  0  0  0  0
   -9.6323  -35.4667   24.6862 H   0  0  0  0  0  0  0  0  0  0  0  0
  -10.7456  -38.2506   20.8807 H   0  0  0  0  0  0  0  0  0  0  0  0
  -10.9382  -32.8524   20.6597 H   0  0  0  0  0  0  0  0  0  0  0  0
  -12.7800  -24.7929   26.1064 H   0  0  0  0  0  0  0  0  0  0  0  0
  1  2  1  0
  2  3  1  0
  2  4  1  0
  4  5  1  0
  5  6  2  0
  6  7  1  0
  7  8  1  0
  8  9  2  0
  8 10  2  0
  8 11  1  0
 11 12  1  0
 12 13  1  0
 13 14  1  0
 14 15  2  0
 15 16  1  0
 16 17  2  0
 17 18  1  0
 18 19  2  0
 19 20  1  0
 20 21  1  0
 21 22  2  0
  7 23  2  0
 23  4  1  0
 22 14  1  0
 21 17  1  0
  1 24  1  0
  1 25  1  0
  1 26  1  0
  2 27  1  0
  3 28  1  0
  3 29  1  0
  3 30  1  0
  5 31  1  0
 11 32  1  0
 12 33  1  0
 12 34  1  0
 13 35  1  0
 13 36  1  0
 15 37  1  0
 16 38  1  0
 19 39  1  0
 22 40  1  0
 23 41  1  0
M  END
>  <Energy>  (304) 
312.75342059103639

>  <compound_id>  (304) 
12552

>  <target_id>  (304) 
1

>  <reference_id>  (304) 
68

>  <inspiration_ids>  (304) 
[115, 68]

>  <energy_score>  (304) 
46.801808204162626

>  <distance_score>  (304) 
3.5667461688639976

>  <path>  (304) 
/opt/xchem-fragalysis-2/maxwin/BulkDock/SCRATCH/511014/C12552-P68/C12552-P68.minimised.mol

>  <scratch_subdir>  (304) 
/opt/xchem-fragalysis-2/maxwin/BulkDock/SCRATCH/511014/C12552-P68

>  <fragmenstein_runtime>  (304) 
15.20159912109375

>  <fragmenstein_outcome>  (304) 
too moved

>  <fragmenstein_mode>  (304) 
expansion

>  <fragmenstein_error>  (304) 


$$$$
C12553-P115
     RDKit          3D

 35 37  0  0  0  0  0  0  0  0999 V2000
  -12.9388  -26.0851   28.7592 C   0  0  0  0  0  0  0  0  0  0  0  0
  -11.4859  -25.9037   28.8540 C   0  0  0  0  0  0  0  0  0  0  0  0
  -10.8389  -25.3774   29.9258 N   0  0  0  0  0  0  0  0  0  0  0  0
   -9.5184  -25.5979   29.6923 C   0  0  0  0  0  0  0  0  0  0  0  0
   -9.2822  -26.1787   28.5250 N   0  0  0  0  0  0  0  0  0  0  0  0
  -10.5190  -26.3599   27.9607 C   0  0  0  0  0  0  0  0  0  0  0  0
  -11.1064  -27.3667   26.6104 S   0  0  0  0  0  0  0  0  0  0  0  0
  -11.8754  -28.2289   27.5159 O   0  0  0  0  0  0  0  0  0  0  0  0
  -11.6681  -26.3755   25.7090 O   0  0  0  0  0  0  0  0  0  0  0  0
  -10.1469  -28.6430   25.4539 N   0  0  0  0  0  0  0  0  0  0  0  0
  -10.1868  -30.3861   25.4747 C   0  0  0  0  0  0  0  0  0  0  0  0
  -10.4728  -31.2227   24.1257 C   0  0  0  0  0  0  0  0  0  0  0  0
  -10.1280  -32.7237   23.9249 C   0  0  0  0  0  0  0  0  0  0  0  0
  -10.9073  -33.7394   24.4978 C   0  0  0  0  0  0  0  0  0  0  0  0
  -10.5395  -35.1014   24.4090 C   0  0  0  0  0  0  0  0  0  0  0  0
   -9.4049  -35.4887   23.6675 C   0  0  0  0  0  0  0  0  0  0  0  0
   -8.8743  -36.7709   23.5724 N   0  0  0  0  0  0  0  0  0  0  0  0
   -7.8424  -36.7560   22.7591 C   0  0  0  0  0  0  0  0  0  0  0  0
   -7.4549  -35.2464   22.0529 S   0  0  0  0  0  0  0  0  0  0  0  0
   -8.7216  -34.4970   22.9618 C   0  0  0  0  0  0  0  0  0  0  0  0
   -9.0680  -33.1229   23.0783 C   0  0  0  0  0  0  0  0  0  0  0  0
  -13.3075  -26.0392   27.7317 H   0  0  0  0  0  0  0  0  0  0  0  0
  -13.4144  -25.2934   29.2887 H   0  0  0  0  0  0  0  0  0  0  0  0
  -13.2581  -27.0323   29.2006 H   0  0  0  0  0  0  0  0  0  0  0  0
  -11.2458  -24.9685   30.7593 H   0  0  0  0  0  0  0  0  0  0  0  0
   -8.7888  -25.3189   30.4347 H   0  0  0  0  0  0  0  0  0  0  0  0
   -9.1630  -28.4217   25.6594 H   0  0  0  0  0  0  0  0  0  0  0  0
  -10.8400  -30.7113   26.2907 H   0  0  0  0  0  0  0  0  0  0  0  0
   -9.1722  -30.6252   25.7751 H   0  0  0  0  0  0  0  0  0  0  0  0
   -9.9899  -30.6817   23.3036 H   0  0  0  0  0  0  0  0  0  0  0  0
  -11.5547  -31.2196   23.9780 H   0  0  0  0  0  0  0  0  0  0  0  0
  -11.7855  -33.4803   25.0861 H   0  0  0  0  0  0  0  0  0  0  0  0
  -11.1163  -35.8582   24.9323 H   0  0  0  0  0  0  0  0  0  0  0  0
   -7.2745  -37.6476   22.5288 H   0  0  0  0  0  0  0  0  0  0  0  0
   -8.4702  -32.3759   22.5563 H   0  0  0  0  0  0  0  0  0  0  0  0
  1  2  1  0
  2  3  1  0
  3  4  1  0
  4  5  2  0
  5  6  1  0
  6  7  1  0
  7  8  2  0
  7  9  2  0
  7 10  1  0
 10 11  1  0
 11 12  1  0
 12 13  1  0
 13 14  2  0
 14 15  1  0
 15 16  2  0
 16 17  1  0
 17 18  2  0
 18 19  1  0
 19 20  1  0
 20 21  2  0
  6  2  2  0
 21 13  1  0
 20 16  1  0
  1 22  1  0
  1 23  1  0
  1 24  1  0
  3 25  1  0
  4 26  1  0
 10 27  1  0
 11 28  1  0
 11 29  1  0
 12 30  1  0
 12 31  1  0
 14 32  1  0
 15 33  1  0
 18 34  1  0
 21 35  1  0
M  END
>  <Energy>  (305) 
142.0888812918158

>  <compound_id>  (305) 
12553

>  <target_id>  (305) 
1

>  <reference_id>  (305) 
115

>  <inspiration_ids>  (305) 
[115, 68]

>  <energy_score>  (305) 
26.21468733304431

>  <distance_score>  (305) 
2.3779878387863778

>  <path>  (305) 
/opt/xchem-fragalysis-2/maxwin/BulkDock/SCRATCH/511014/C12553-P115/C12553-P115.minimised.mol

>  <scratch_subdir>  (305) 
/opt/xchem-fragalysis-2/maxwin/BulkDock/SCRATCH/511014/C12553-P115

>  <fragmenstein_runtime>  (305) 
1.9632737636566162

>  <fragmenstein_outcome>  (305) 
too moved

>  <fragmenstein_mode>  (305) 
expansion

>  <fragmenstein_error>  (305) 


$$$$
C12553-P68
     RDKit          3D

 35 37  0  0  0  0  0  0  0  0999 V2000
  -13.3183  -25.2400   25.8301 C   0  0  0  0  0  0  0  0  0  0  0  0
  -11.9197  -24.9461   26.2090 C   0  0  0  0  0  0  0  0  0  0  0  0
  -11.5468  -23.7724   26.8327 N   0  0  0  0  0  0  0  0  0  0  0  0
  -10.2682  -23.9708   27.2691 C   0  0  0  0  0  0  0  0  0  0  0  0
   -9.7133  -24.9755   26.6520 N   0  0  0  0  0  0  0  0  0  0  0  0
  -10.7420  -25.7003   26.1447 C   0  0  0  0  0  0  0  0  0  0  0  0
  -10.7082  -27.4118   25.8210 S   0  0  0  0  0  0  0  0  0  0  0  0
  -11.9792  -27.5706   25.1772 O   0  0  0  0  0  0  0  0  0  0  0  0
  -10.4828  -28.0079   27.1272 O   0  0  0  0  0  0  0  0  0  0  0  0
   -9.1728  -28.2140   24.6926 N   0  0  0  0  0  0  0  0  0  0  0  0
   -8.6894  -29.7275   23.3424 C   0  0  0  0  0  0  0  0  0  0  0  0
  -10.0495  -31.1189   22.7797 C   0  0  0  0  0  0  0  0  0  0  0  0
  -10.0803  -32.7090   22.8853 C   0  0  0  0  0  0  0  0  0  0  0  0
  -10.2322  -33.4157   24.0770 C   0  0  0  0  0  0  0  0  0  0  0  0
  -10.1657  -34.8132   24.2019 C   0  0  0  0  0  0  0  0  0  0  0  0
  -10.1001  -35.5907   23.0496 C   0  0  0  0  0  0  0  0  0  0  0  0
  -10.0150  -36.9693   23.0054 N   0  0  0  0  0  0  0  0  0  0  0  0
  -10.0741  -37.3625   21.7563 C   0  0  0  0  0  0  0  0  0  0  0  0
  -10.3031  -36.1334   20.5902 S   0  0  0  0  0  0  0  0  0  0  0  0
  -10.1920  -34.9317   21.8254 C   0  0  0  0  0  0  0  0  0  0  0  0
  -10.2095  -33.5101   21.7366 C   0  0  0  0  0  0  0  0  0  0  0  0
  -13.8882  -24.3168   25.8181 H   0  0  0  0  0  0  0  0  0  0  0  0
  -13.5262  -25.5921   24.8297 H   0  0  0  0  0  0  0  0  0  0  0  0
  -13.6926  -26.0410   26.4663 H   0  0  0  0  0  0  0  0  0  0  0  0
  -12.1912  -23.0829   27.2074 H   0  0  0  0  0  0  0  0  0  0  0  0
   -9.8108  -23.3565   28.0270 H   0  0  0  0  0  0  0  0  0  0  0  0
   -9.2570  -28.7125   25.6599 H   0  0  0  0  0  0  0  0  0  0  0  0
   -7.7967  -30.1380   23.7795 H   0  0  0  0  0  0  0  0  0  0  0  0
   -8.3688  -29.0720   22.5055 H   0  0  0  0  0  0  0  0  0  0  0  0
  -10.1566  -30.8932   21.6859 H   0  0  0  0  0  0  0  0  0  0  0  0
  -11.1297  -31.0137   22.8851 H   0  0  0  0  0  0  0  0  0  0  0  0
  -10.4928  -32.9182   24.9853 H   0  0  0  0  0  0  0  0  0  0  0  0
  -10.2066  -35.2878   25.1764 H   0  0  0  0  0  0  0  0  0  0  0  0
  -10.0132  -38.4063   21.4774 H   0  0  0  0  0  0  0  0  0  0  0  0
  -10.3498  -33.0549   20.7666 H   0  0  0  0  0  0  0  0  0  0  0  0
  1  2  1  0
  2  3  1  0
  3  4  1  0
  4  5  2  0
  5  6  1  0
  6  7  1  0
  7  8  2  0
  7  9  2  0
  7 10  1  0
 10 11  1  0
 11 12  1  0
 12 13  1  0
 13 14  2  0
 14 15  1  0
 15 16  2  0
 16 17  1  0
 17 18  2  0
 18 19  1  0
 19 20  1  0
 20 21  2  0
  6  2  2  0
 21 13  1  0
 20 16  1  0
  1 22  1  0
  1 23  1  0
  1 24  1  0
  3 25  1  0
  4 26  1  0
 10 27  1  0
 11 28  1  0
 11 29  1  0
 12 30  1  0
 12 31  1  0
 14 32  1  0
 15 33  1  0
 18 34  1  0
 21 35  1  0
M  END
>  <Energy>  (306) 
320.13823651011512

>  <compound_id>  (306) 
12553

>  <target_id>  (306) 
1

>  <reference_id>  (306) 
68

>  <inspiration_ids>  (306) 
[115, 68]

>  <energy_score>  (306) 
173.061997293638

>  <distance_score>  (306) 
3.4628719222898057

>  <path>  (306) 
/opt/xchem-fragalysis-2/maxwin/BulkDock/SCRATCH/511014/C12553-P68/C12553-P68.minimised.mol

>  <scratch_subdir>  (306) 
/opt/xchem-fragalysis-2/maxwin/BulkDock/SCRATCH/511014/C12553-P68

>  <fragmenstein_runtime>  (306) 
8.491612434387207

>  <fragmenstein_outcome>  (306) 
too moved

>  <fragmenstein_mode>  (306) 
expansion

>  <fragmenstein_error>  (306) 


$$$$
C12554-P115
     RDKit          3D

 35 37  0  0  0  0  0  0  0  0999 V2000
  -12.2233  -31.7181   25.4994 C   0  0  0  0  0  0  0  0  0  0  0  0
  -10.7454  -31.3702   25.2518 C   0  0  0  0  0  0  0  0  0  0  0  0
  -10.5873  -29.8926   24.8711 N   0  0  0  0  0  0  0  0  0  0  0  0
  -10.4795  -28.1236   25.5397 S   0  0  0  0  0  0  0  0  0  0  0  0
   -9.0903  -28.0226   25.8913 O   0  0  0  0  0  0  0  0  0  0  0  0
  -11.0401  -27.2471   24.5276 O   0  0  0  0  0  0  0  0  0  0  0  0
  -11.2306  -27.2742   27.0798 C   0  0  0  0  0  0  0  0  0  0  0  0
  -10.9500  -25.9481   27.3894 C   0  0  0  0  0  0  0  0  0  0  0  0
  -11.2470  -25.8061   28.7121 N   0  0  0  0  0  0  0  0  0  0  0  0
  -11.0739  -24.6198   29.5027 C   0  0  0  0  0  0  0  0  0  0  0  0
  -11.7324  -26.9898   29.1638 C   0  0  0  0  0  0  0  0  0  0  0  0
  -11.8116  -27.8845   28.1978 N   0  0  0  0  0  0  0  0  0  0  0  0
  -10.2621  -32.5825   24.2564 C   0  0  0  0  0  0  0  0  0  0  0  0
  -10.7867  -33.9055   24.4525 C   0  0  0  0  0  0  0  0  0  0  0  0
  -10.2141  -35.0869   23.9521 C   0  0  0  0  0  0  0  0  0  0  0  0
   -9.0727  -35.0005   23.1623 C   0  0  0  0  0  0  0  0  0  0  0  0
   -8.3200  -36.0834   22.7306 N   0  0  0  0  0  0  0  0  0  0  0  0
   -7.3282  -35.6406   21.9964 C   0  0  0  0  0  0  0  0  0  0  0  0
   -7.2774  -33.9474   21.7374 S   0  0  0  0  0  0  0  0  0  0  0  0
   -8.6214  -33.7237   22.8086 C   0  0  0  0  0  0  0  0  0  0  0  0
   -9.1918  -32.5101   23.3469 C   0  0  0  0  0  0  0  0  0  0  0  0
  -12.6684  -31.1090   26.2823 H   0  0  0  0  0  0  0  0  0  0  0  0
  -12.4369  -32.7022   25.8983 H   0  0  0  0  0  0  0  0  0  0  0  0
  -12.7738  -31.6895   24.5582 H   0  0  0  0  0  0  0  0  0  0  0  0
  -10.2011  -31.4504   26.1854 H   0  0  0  0  0  0  0  0  0  0  0  0
  -10.6385  -29.7630   23.8528 H   0  0  0  0  0  0  0  0  0  0  0  0
  -10.5029  -25.1542   26.8124 H   0  0  0  0  0  0  0  0  0  0  0  0
  -12.0032  -24.4018   30.0276 H   0  0  0  0  0  0  0  0  0  0  0  0
  -10.8229  -23.7842   28.8453 H   0  0  0  0  0  0  0  0  0  0  0  0
  -10.2724  -24.8106   30.2198 H   0  0  0  0  0  0  0  0  0  0  0  0
  -11.9930  -27.1532   30.1954 H   0  0  0  0  0  0  0  0  0  0  0  0
  -11.6110  -34.1172   25.1241 H   0  0  0  0  0  0  0  0  0  0  0  0
  -10.6142  -36.0581   24.2251 H   0  0  0  0  0  0  0  0  0  0  0  0
   -6.5936  -36.2976   21.5502 H   0  0  0  0  0  0  0  0  0  0  0  0
   -8.7059  -31.5584   23.1367 H   0  0  0  0  0  0  0  0  0  0  0  0
  1  2  1  0
  2  3  1  0
  3  4  1  0
  4  5  2  0
  4  6  2  0
  4  7  1  0
  7  8  2  0
  8  9  1  0
  9 10  1  0
  9 11  1  0
 11 12  2  0
  2 13  1  0
 13 14  2  0
 14 15  1  0
 15 16  2  0
 16 17  1  0
 17 18  2  0
 18 19  1  0
 19 20  1  0
 20 21  2  0
 12  7  1  0
 21 13  1  0
 20 16  1  0
  1 22  1  0
  1 23  1  0
  1 24  1  0
  2 25  1  0
  3 26  1  0
  8 27  1  0
 10 28  1  0
 10 29  1  0
 10 30  1  0
 11 31  1  0
 14 32  1  0
 15 33  1  0
 18 34  1  0
 21 35  1  0
M  END
>  <Energy>  (307) 
120.911440168727

>  <compound_id>  (307) 
12554

>  <target_id>  (307) 
1

>  <reference_id>  (307) 
115

>  <inspiration_ids>  (307) 
[115, 68]

>  <energy_score>  (307) 
27.78822535773827

>  <distance_score>  (307) 
2.91204051744485

>  <path>  (307) 
/opt/xchem-fragalysis-2/maxwin/BulkDock/SCRATCH/511014/C12554-P115/C12554-P115.minimised.mol

>  <scratch_subdir>  (307) 
/opt/xchem-fragalysis-2/maxwin/BulkDock/SCRATCH/511014/C12554-P115

>  <fragmenstein_runtime>  (307) 
2.563189744949341

>  <fragmenstein_outcome>  (307) 
too moved

>  <fragmenstein_mode>  (307) 
expansion

>  <fragmenstein_error>  (307) 


$$$$
C12554-P68
     RDKit          3D

 35 37  0  0  0  0  0  0  0  0999 V2000
  -11.6083  -30.2527   20.0747 C   0  0  0  0  0  0  0  0  0  0  0  0
  -10.8498  -29.8924   21.4765 C   0  0  0  0  0  0  0  0  0  0  0  0
  -10.6020  -27.8480   21.9917 N   0  0  0  0  0  0  0  0  0  0  0  0
  -10.8309  -27.4273   24.4420 S   0  0  0  0  0  0  0  0  0  0  0  0
   -9.5570  -27.8306   24.9572 O   0  0  0  0  0  0  0  0  0  0  0  0
  -12.1076  -27.7924   25.0251 O   0  0  0  0  0  0  0  0  0  0  0  0
  -10.9266  -25.9376   25.5884 C   0  0  0  0  0  0  0  0  0  0  0  0
   -9.9549  -25.0650   25.9971 C   0  0  0  0  0  0  0  0  0  0  0  0
  -10.5656  -24.2227   26.8377 N   0  0  0  0  0  0  0  0  0  0  0  0
   -9.9357  -23.6246   27.9627 C   0  0  0  0  0  0  0  0  0  0  0  0
  -11.8599  -24.2260   26.4611 C   0  0  0  0  0  0  0  0  0  0  0  0
  -12.1759  -25.4213   25.9880 N   0  0  0  0  0  0  0  0  0  0  0  0
  -11.2138  -31.4545   22.1641 C   0  0  0  0  0  0  0  0  0  0  0  0
  -12.4934  -31.9406   22.4332 C   0  0  0  0  0  0  0  0  0  0  0  0
  -12.7818  -33.2185   22.9877 C   0  0  0  0  0  0  0  0  0  0  0  0
  -11.7639  -34.1715   23.1182 C   0  0  0  0  0  0  0  0  0  0  0  0
  -11.8559  -35.4486   23.6465 N   0  0  0  0  0  0  0  0  0  0  0  0
  -10.7232  -36.0861   23.4469 C   0  0  0  0  0  0  0  0  0  0  0  0
   -9.5184  -35.2306   22.5864 S   0  0  0  0  0  0  0  0  0  0  0  0
  -10.5393  -33.8376   22.5625 C   0  0  0  0  0  0  0  0  0  0  0  0
  -10.3102  -32.5387   22.0343 C   0  0  0  0  0  0  0  0  0  0  0  0
  -12.6348  -30.6050   20.2445 H   0  0  0  0  0  0  0  0  0  0  0  0
  -11.1212  -31.0807   19.5718 H   0  0  0  0  0  0  0  0  0  0  0  0
  -11.7629  -29.4160   19.3942 H   0  0  0  0  0  0  0  0  0  0  0  0
   -9.8287  -30.1828   21.4836 H   0  0  0  0  0  0  0  0  0  0  0  0
   -9.6861  -28.3862   22.0785 H   0  0  0  0  0  0  0  0  0  0  0  0
   -8.9388  -24.8829   25.7698 H   0  0  0  0  0  0  0  0  0  0  0  0
   -9.7978  -24.4078   28.6896 H   0  0  0  0  0  0  0  0  0  0  0  0
   -8.9109  -23.3340   27.7367 H   0  0  0  0  0  0  0  0  0  0  0  0
  -10.5360  -22.7988   28.3488 H   0  0  0  0  0  0  0  0  0  0  0  0
  -12.4790  -23.3602   26.5199 H   0  0  0  0  0  0  0  0  0  0  0  0
  -13.3517  -31.3559   22.1523 H   0  0  0  0  0  0  0  0  0  0  0  0
  -13.8007  -33.4852   23.2532 H   0  0  0  0  0  0  0  0  0  0  0  0
  -10.5647  -37.1028   23.7835 H   0  0  0  0  0  0  0  0  0  0  0  0
   -9.4369  -32.4622   21.4132 H   0  0  0  0  0  0  0  0  0  0  0  0
  1  2  1  0
  2  3  1  0
  3  4  1  0
  4  5  2  0
  4  6  2  0
  4  7  1  0
  7  8  2  0
  8  9  1  0
  9 10  1  0
  9 11  1  0
 11 12  2  0
  2 13  1  0
 13 14  2  0
 14 15  1  0
 15 16  2  0
 16 17  1  0
 17 18  2  0
 18 19  1  0
 19 20  1  0
 20 21  2  0
 12  7  1  0
 21 13  1  0
 20 16  1  0
  1 22  1  0
  1 23  1  0
  1 24  1  0
  2 25  1  0
  3 26  1  0
  8 27  1  0
 10 28  1  0
 10 29  1  0
 10 30  1  0
 11 31  1  0
 14 32  1  0
 15 33  1  0
 18 34  1  0
 21 35  1  0
M  END
>  <Energy>  (308) 
443.78837523979394

>  <compound_id>  (308) 
12554

>  <target_id>  (308) 
1

>  <reference_id>  (308) 
68

>  <inspiration_ids>  (308) 
[115, 68]

>  <energy_score>  (308) 
347.246220258414

>  <distance_score>  (308) 
4.444326281977095

>  <path>  (308) 
/opt/xchem-fragalysis-2/maxwin/BulkDock/SCRATCH/511014/C12554-P68/C12554-P68.minimised.mol

>  <scratch_subdir>  (308) 
/opt/xchem-fragalysis-2/maxwin/BulkDock/SCRATCH/511014/C12554-P68

>  <fragmenstein_runtime>  (308) 
5.699616432189941

>  <fragmenstein_outcome>  (308) 
too moved

>  <fragmenstein_mode>  (308) 
expansion

>  <fragmenstein_error>  (308) 


$$$$
C12555-P115
     RDKit          3D

 30 32  0  0  0  0  0  0  0  0999 V2000
   -9.1653  -29.8927   23.3873 O   0  0  0  0  0  0  0  0  0  0  0  0
   -9.7549  -30.2464   24.3144 C   0  0  0  0  0  0  0  0  0  0  0  0
  -10.3771  -29.3987   25.5343 N   0  0  0  0  0  0  0  0  0  0  0  0
  -10.4504  -27.8355   25.7585 C   0  0  0  0  0  0  0  0  0  0  0  0
  -11.0474  -27.1284   27.1074 C   0  0  0  0  0  0  0  0  0  0  0  0
  -11.6437  -27.6711   28.1650 N   0  0  0  0  0  0  0  0  0  0  0  0
  -11.6254  -26.7204   29.1604 C   0  0  0  0  0  0  0  0  0  0  0  0
  -11.1362  -25.5336   28.6971 C   0  0  0  0  0  0  0  0  0  0  0  0
  -10.8174  -25.7863   27.3919 N   0  0  0  0  0  0  0  0  0  0  0  0
  -10.2784  -31.6911   24.7035 N   0  0  0  0  0  0  0  0  0  0  0  0
  -10.0797  -32.9474   24.0616 C   0  0  0  0  0  0  0  0  0  0  0  0
  -10.8078  -34.0511   24.5310 C   0  0  0  0  0  0  0  0  0  0  0  0
  -10.4107  -35.3713   24.2560 C   0  0  0  0  0  0  0  0  0  0  0  0
   -9.2880  -35.6050   23.4432 C   0  0  0  0  0  0  0  0  0  0  0  0
   -8.6938  -36.8392   23.2100 N   0  0  0  0  0  0  0  0  0  0  0  0
   -7.6829  -36.6824   22.3869 C   0  0  0  0  0  0  0  0  0  0  0  0
   -7.4025  -35.0918   21.8218 S   0  0  0  0  0  0  0  0  0  0  0  0
   -8.6853  -34.5056   22.8240 C   0  0  0  0  0  0  0  0  0  0  0  0
   -9.0900  -33.1671   23.0937 C   0  0  0  0  0  0  0  0  0  0  0  0
  -10.7609  -30.0251   26.2242 H   0  0  0  0  0  0  0  0  0  0  0  0
   -9.4086  -27.5743   25.8101 H   0  0  0  0  0  0  0  0  0  0  0  0
  -10.9382  -27.3971   24.8910 H   0  0  0  0  0  0  0  0  0  0  0  0
  -11.9635  -26.9456   30.1579 H   0  0  0  0  0  0  0  0  0  0  0  0
  -10.9984  -24.5626   29.1507 H   0  0  0  0  0  0  0  0  0  0  0  0
  -10.4477  -25.1063   26.7451 H   0  0  0  0  0  0  0  0  0  0  0  0
  -10.8266  -31.6376   25.5390 H   0  0  0  0  0  0  0  0  0  0  0  0
  -11.6400  -33.9030   25.2144 H   0  0  0  0  0  0  0  0  0  0  0  0
  -10.9280  -36.2091   24.7122 H   0  0  0  0  0  0  0  0  0  0  0  0
   -7.0678  -37.5105   22.0610 H   0  0  0  0  0  0  0  0  0  0  0  0
   -8.5258  -32.3352   22.6753 H   0  0  0  0  0  0  0  0  0  0  0  0
  1  2  2  0
  2  3  1  0
  3  4  1  0
  4  5  1  0
  5  6  2  0
  6  7  1  0
  7  8  2  0
  8  9  1  0
  2 10  1  0
 10 11  1  0
 11 12  2  0
 12 13  1  0
 13 14  2  0
 14 15  1  0
 15 16  2  0
 16 17  1  0
 17 18  1  0
 18 19  2  0
  9  5  1  0
 19 11  1  0
 18 14  1  0
  3 20  1  0
  4 21  1  0
  4 22  1  0
  7 23  1  0
  8 24  1  0
  9 25  1  0
 10 26  1  0
 12 27  1  0
 13 28  1  0
 16 29  1  0
 19 30  1  0
M  END
>  <Energy>  (309) 
-0.15389221404512998

>  <compound_id>  (309) 
12555

>  <target_id>  (309) 
1

>  <reference_id>  (309) 
115

>  <inspiration_ids>  (309) 
[115, 68]

>  <energy_score>  (309) 
-4.871647337095851

>  <distance_score>  (309) 
2.710596628316167

>  <path>  (309) 
/opt/xchem-fragalysis-2/maxwin/BulkDock/SCRATCH/511014/C12555-P115/C12555-P115.minimised.mol

>  <scratch_subdir>  (309) 
/opt/xchem-fragalysis-2/maxwin/BulkDock/SCRATCH/511014/C12555-P115

>  <fragmenstein_runtime>  (309) 
2.0025100708007812

>  <fragmenstein_outcome>  (309) 
too moved

>  <fragmenstein_mode>  (309) 
expansion

>  <fragmenstein_error>  (309) 


$$$$
C12555-P68
     RDKit          3D

 30 32  0  0  0  0  0  0  0  0999 V2000
  -12.4646  -32.2262   23.4083 O   0  0  0  0  0  0  0  0  0  0  0  0
  -12.5622  -32.5901   24.5274 C   0  0  0  0  0  0  0  0  0  0  0  0
  -12.8025  -31.7642   25.8373 N   0  0  0  0  0  0  0  0  0  0  0  0
  -13.0956  -30.1872   26.0543 C   0  0  0  0  0  0  0  0  0  0  0  0
  -12.3667  -28.3153   25.7398 C   0  0  0  0  0  0  0  0  0  0  0  0
  -13.1867  -27.2479   25.5248 N   0  0  0  0  0  0  0  0  0  0  0  0
  -12.5285  -26.1349   25.9683 C   0  0  0  0  0  0  0  0  0  0  0  0
  -11.2022  -26.4207   26.1689 C   0  0  0  0  0  0  0  0  0  0  0  0
  -11.1610  -27.7686   26.2857 N   0  0  0  0  0  0  0  0  0  0  0  0
  -12.3922  -33.9419   25.1137 N   0  0  0  0  0  0  0  0  0  0  0  0
  -11.9780  -35.1433   24.5323 C   0  0  0  0  0  0  0  0  0  0  0  0
  -12.1430  -36.3384   25.2241 C   0  0  0  0  0  0  0  0  0  0  0  0
  -11.4443  -37.4884   24.8339 C   0  0  0  0  0  0  0  0  0  0  0  0
  -10.5468  -37.4338   23.7489 C   0  0  0  0  0  0  0  0  0  0  0  0
   -9.7332  -38.4665   23.3166 N   0  0  0  0  0  0  0  0  0  0  0  0
   -8.9935  -38.0512   22.3146 C   0  0  0  0  0  0  0  0  0  0  0  0
   -9.2565  -36.4437   21.7924 S   0  0  0  0  0  0  0  0  0  0  0  0
  -10.4355  -36.2406   23.0340 C   0  0  0  0  0  0  0  0  0  0  0  0
  -11.1780  -35.0959   23.3786 C   0  0  0  0  0  0  0  0  0  0  0  0
  -12.9180  -32.3912   26.6134 H   0  0  0  0  0  0  0  0  0  0  0  0
  -12.9281  -30.4377   27.0492 H   0  0  0  0  0  0  0  0  0  0  0  0
  -14.2128  -30.1213   26.0784 H   0  0  0  0  0  0  0  0  0  0  0  0
  -12.9997  -25.1608   26.0001 H   0  0  0  0  0  0  0  0  0  0  0  0
  -10.3815  -25.7740   26.4452 H   0  0  0  0  0  0  0  0  0  0  0  0
  -10.4297  -28.3009   26.7342 H   0  0  0  0  0  0  0  0  0  0  0  0
  -12.6293  -33.9122   26.0832 H   0  0  0  0  0  0  0  0  0  0  0  0
  -12.7913  -36.3969   26.0931 H   0  0  0  0  0  0  0  0  0  0  0  0
  -11.5469  -38.4177   25.3864 H   0  0  0  0  0  0  0  0  0  0  0  0
   -8.2637  -38.6902   21.8352 H   0  0  0  0  0  0  0  0  0  0  0  0
  -11.0173  -34.1704   22.8335 H   0  0  0  0  0  0  0  0  0  0  0  0
  1  2  2  0
  2  3  1  0
  3  4  1  0
  4  5  1  0
  5  6  2  0
  6  7  1  0
  7  8  2  0
  8  9  1  0
  2 10  1  0
 10 11  1  0
 11 12  2  0
 12 13  1  0
 13 14  2  0
 14 15  1  0
 15 16  2  0
 16 17  1  0
 17 18  1  0
 18 19  2  0
  9  5  1  0
 19 11  1  0
 18 14  1  0
  3 20  1  0
  4 21  1  0
  4 22  1  0
  7 23  1  0
  8 24  1  0
  9 25  1  0
 10 26  1  0
 12 27  1  0
 13 28  1  0
 16 29  1  0
 19 30  1  0
M  END
>  <Energy>  (310) 
105.29170813081819

>  <compound_id>  (310) 
12555

>  <target_id>  (310) 
1

>  <reference_id>  (310) 
68

>  <inspiration_ids>  (310) 
[115, 68]

>  <energy_score>  (310) 
70.47021744659298

>  <distance_score>  (310) 
3.8423507362840272

>  <path>  (310) 
/opt/xchem-fragalysis-2/maxwin/BulkDock/SCRATCH/511014/C12555-P68/C12555-P68.minimised.mol

>  <scratch_subdir>  (310) 
/opt/xchem-fragalysis-2/maxwin/BulkDock/SCRATCH/511014/C12555-P68

>  <fragmenstein_runtime>  (310) 
6.538999080657959

>  <fragmenstein_outcome>  (310) 
too moved

>  <fragmenstein_mode>  (310) 
expansion

>  <fragmenstein_error>  (310) 


$$$$
C12556-P115
     RDKit          3D

 35 37  0  0  0  0  0  0  0  0999 V2000
  -11.1744  -31.1403   24.5294 O   0  0  0  0  0  0  0  0  0  0  0  0
   -9.8610  -30.7484   24.0307 S   0  0  0  0  0  0  0  0  0  0  0  0
   -9.5951  -30.0801   22.7723 O   0  0  0  0  0  0  0  0  0  0  0  0
   -9.2427  -29.6631   25.2919 N   0  0  0  0  0  0  0  0  0  0  0  0
  -10.1446  -28.2221   25.4388 C   0  0  0  0  0  0  0  0  0  0  0  0
  -10.9398  -27.3025   26.5191 C   0  0  0  0  0  0  0  0  0  0  0  0
  -10.6146  -25.9867   27.1812 C   0  0  0  0  0  0  0  0  0  0  0  0
  -10.7110  -24.8419   26.5239 N   0  0  0  0  0  0  0  0  0  0  0  0
  -11.0284  -23.8806   27.4423 C   0  0  0  0  0  0  0  0  0  0  0  0
  -10.9920  -24.3925   28.7046 C   0  0  0  0  0  0  0  0  0  0  0  0
  -10.7139  -25.7233   28.5452 N   0  0  0  0  0  0  0  0  0  0  0  0
  -10.7554  -26.6502   29.6548 C   0  0  0  0  0  0  0  0  0  0  0  0
  -11.8103  -27.5011   29.5421 F   0  0  0  0  0  0  0  0  0  0  0  0
  -10.9283  -26.0131   30.8461 F   0  0  0  0  0  0  0  0  0  0  0  0
   -9.0973  -32.3423   23.7145 C   0  0  0  0  0  0  0  0  0  0  0  0
   -9.8440  -33.5022   23.9918 C   0  0  0  0  0  0  0  0  0  0  0  0
   -9.4556  -34.7650   23.5249 C   0  0  0  0  0  0  0  0  0  0  0  0
   -8.3472  -34.8716   22.6680 C   0  0  0  0  0  0  0  0  0  0  0  0
   -7.8437  -36.0528   22.1478 N   0  0  0  0  0  0  0  0  0  0  0  0
   -6.8423  -35.7739   21.3455 C   0  0  0  0  0  0  0  0  0  0  0  0
   -6.4651  -34.1184   21.1370 S   0  0  0  0  0  0  0  0  0  0  0  0
   -7.6844  -33.7006   22.2834 C   0  0  0  0  0  0  0  0  0  0  0  0
   -8.0378  -32.4286   22.7932 C   0  0  0  0  0  0  0  0  0  0  0  0
   -8.2517  -29.4919   25.0939 H   0  0  0  0  0  0  0  0  0  0  0  0
  -10.6850  -29.0125   25.8920 H   0  0  0  0  0  0  0  0  0  0  0  0
  -10.6182  -28.0310   24.4797 H   0  0  0  0  0  0  0  0  0  0  0  0
  -11.4631  -27.8974   27.2814 H   0  0  0  0  0  0  0  0  0  0  0  0
  -11.7708  -26.9332   25.8920 H   0  0  0  0  0  0  0  0  0  0  0  0
  -11.2988  -22.8732   27.1521 H   0  0  0  0  0  0  0  0  0  0  0  0
  -11.2161  -23.9512   29.6666 H   0  0  0  0  0  0  0  0  0  0  0  0
   -9.8102  -27.1810   29.6991 H   0  0  0  0  0  0  0  0  0  0  0  0
  -10.7679  -33.4413   24.5658 H   0  0  0  0  0  0  0  0  0  0  0  0
  -10.0220  -35.6528   23.7870 H   0  0  0  0  0  0  0  0  0  0  0  0
   -6.2885  -36.5432   20.8243 H   0  0  0  0  0  0  0  0  0  0  0  0
   -7.5248  -31.5368   22.4404 H   0  0  0  0  0  0  0  0  0  0  0  0
  1  2  2  0
  2  3  2  0
  2  4  1  0
  4  5  1  0
  5  6  1  0
  6  7  1  0
  7  8  2  0
  8  9  1  0
  9 10  2  0
 10 11  1  0
 11 12  1  0
 12 13  1  0
 12 14  1  0
  2 15  1  0
 15 16  2  0
 16 17  1  0
 17 18  2  0
 18 19  1  0
 19 20  2  0
 20 21  1  0
 21 22  1  0
 22 23  2  0
 11  7  1  0
 23 15  1  0
 22 18  1  0
  4 24  1  0
  5 25  1  0
  5 26  1  0
  6 27  1  0
  6 28  1  0
  9 29  1  0
 10 30  1  0
 12 31  1  0
 16 32  1  0
 17 33  1  0
 20 34  1  0
 23 35  1  0
M  END
>  <Energy>  (311) 
115.11585981482249

>  <compound_id>  (311) 
12556

>  <target_id>  (311) 
1

>  <reference_id>  (311) 
115

>  <inspiration_ids>  (311) 
[115, 68]

>  <energy_score>  (311) 
-135.36012684029424

>  <distance_score>  (311) 
3.3087151743208936

>  <path>  (311) 
/opt/xchem-fragalysis-2/maxwin/BulkDock/SCRATCH/511014/C12556-P115/C12556-P115.minimised.mol

>  <scratch_subdir>  (311) 
/opt/xchem-fragalysis-2/maxwin/BulkDock/SCRATCH/511014/C12556-P115

>  <fragmenstein_runtime>  (311) 
3.140045642852783

>  <fragmenstein_outcome>  (311) 
too moved

>  <fragmenstein_mode>  (311) 
expansion

>  <fragmenstein_error>  (311) 


$$$$
C12556-P68
     RDKit          3D

 35 37  0  0  0  0  0  0  0  0999 V2000
  -11.7268  -31.4053   22.9285 O   0  0  0  0  0  0  0  0  0  0  0  0
  -10.3380  -31.3562   22.5337 S   0  0  0  0  0  0  0  0  0  0  0  0
  -10.1767  -31.2771   21.0838 O   0  0  0  0  0  0  0  0  0  0  0  0
   -8.8134  -29.8638   23.4595 N   0  0  0  0  0  0  0  0  0  0  0  0
   -9.3286  -28.0945   24.5133 C   0  0  0  0  0  0  0  0  0  0  0  0
  -10.5018  -27.6385   25.6902 C   0  0  0  0  0  0  0  0  0  0  0  0
  -11.3525  -26.3840   25.8850 C   0  0  0  0  0  0  0  0  0  0  0  0
  -12.6772  -26.4881   25.6875 N   0  0  0  0  0  0  0  0  0  0  0  0
  -13.2304  -25.2540   25.8024 C   0  0  0  0  0  0  0  0  0  0  0  0
  -12.2858  -24.3710   26.2381 C   0  0  0  0  0  0  0  0  0  0  0  0
  -11.1105  -25.1004   26.3264 N   0  0  0  0  0  0  0  0  0  0  0  0
   -9.9807  -24.5818   27.0315 C   0  0  0  0  0  0  0  0  0  0  0  0
   -9.0253  -24.2984   26.1374 F   0  0  0  0  0  0  0  0  0  0  0  0
  -10.2478  -23.4610   27.7485 F   0  0  0  0  0  0  0  0  0  0  0  0
   -9.9707  -33.1149   22.9565 C   0  0  0  0  0  0  0  0  0  0  0  0
  -10.1728  -33.6171   24.2346 C   0  0  0  0  0  0  0  0  0  0  0  0
   -9.8707  -34.9424   24.5807 C   0  0  0  0  0  0  0  0  0  0  0  0
   -9.4983  -35.8447   23.5781 C   0  0  0  0  0  0  0  0  0  0  0  0
   -9.1446  -37.1663   23.7675 N   0  0  0  0  0  0  0  0  0  0  0  0
   -8.9344  -37.7306   22.6022 C   0  0  0  0  0  0  0  0  0  0  0  0
   -9.2115  -36.7496   21.2280 S   0  0  0  0  0  0  0  0  0  0  0  0
   -9.5439  -35.4037   22.2548 C   0  0  0  0  0  0  0  0  0  0  0  0
   -9.8439  -34.0593   21.9317 C   0  0  0  0  0  0  0  0  0  0  0  0
   -8.7965  -29.3255   22.5776 H   0  0  0  0  0  0  0  0  0  0  0  0
   -8.4703  -28.1874   25.0726 H   0  0  0  0  0  0  0  0  0  0  0  0
   -9.2210  -27.4205   23.7300 H   0  0  0  0  0  0  0  0  0  0  0  0
  -11.4047  -28.0913   25.3438 H   0  0  0  0  0  0  0  0  0  0  0  0
  -10.2898  -28.0774   26.6740 H   0  0  0  0  0  0  0  0  0  0  0  0
  -14.2381  -25.0556   25.4647 H   0  0  0  0  0  0  0  0  0  0  0  0
  -12.2739  -23.3036   26.4072 H   0  0  0  0  0  0  0  0  0  0  0  0
   -9.6856  -25.3216   27.7478 H   0  0  0  0  0  0  0  0  0  0  0  0
  -10.6286  -33.0099   24.9959 H   0  0  0  0  0  0  0  0  0  0  0  0
   -9.9438  -35.2813   25.6079 H   0  0  0  0  0  0  0  0  0  0  0  0
   -8.6276  -38.7647   22.5118 H   0  0  0  0  0  0  0  0  0  0  0  0
  -10.0112  -33.7694   20.9021 H   0  0  0  0  0  0  0  0  0  0  0  0
  1  2  2  0
  2  3  2  0
  2  4  1  0
  4  5  1  0
  5  6  1  0
  6  7  1  0
  7  8  2  0
  8  9  1  0
  9 10  2  0
 10 11  1  0
 11 12  1  0
 12 13  1  0
 12 14  1  0
  2 15  1  0
 15 16  2  0
 16 17  1  0
 17 18  2  0
 18 19  1  0
 19 20  2  0
 20 21  1  0
 21 22  1  0
 22 23  2  0
 11  7  1  0
 23 15  1  0
 22 18  1  0
  4 24  1  0
  5 25  1  0
  5 26  1  0
  6 27  1  0
  6 28  1  0
  9 29  1  0
 10 30  1  0
 12 31  1  0
 16 32  1  0
 17 33  1  0
 20 34  1  0
 23 35  1  0
M  END
>  <Energy>  (312) 
268.92009874175449

>  <compound_id>  (312) 
12556

>  <target_id>  (312) 
1

>  <reference_id>  (312) 
68

>  <inspiration_ids>  (312) 
[115, 68]

>  <energy_score>  (312) 
18.444112086638143

>  <distance_score>  (312) 
3.627986327161649

>  <path>  (312) 
/opt/xchem-fragalysis-2/maxwin/BulkDock/SCRATCH/511014/C12556-P68/C12556-P68.minimised.mol

>  <scratch_subdir>  (312) 
/opt/xchem-fragalysis-2/maxwin/BulkDock/SCRATCH/511014/C12556-P68

>  <fragmenstein_runtime>  (312) 
8.690220594406128

>  <fragmenstein_outcome>  (312) 
too moved

>  <fragmenstein_mode>  (312) 
expansion

>  <fragmenstein_error>  (312) 


$$$$
C12557-P115
     RDKit          3D

 30 32  0  0  0  0  0  0  0  0999 V2000
   -8.8474  -29.8075   24.1874 O   0  0  0  0  0  0  0  0  0  0  0  0
   -9.8318  -30.2643   24.7489 C   0  0  0  0  0  0  0  0  0  0  0  0
  -10.5910  -29.5170   25.6647 O   0  0  0  0  0  0  0  0  0  0  0  0
  -10.4915  -27.8956   25.7516 C   0  0  0  0  0  0  0  0  0  0  0  0
  -10.8687  -27.0158   27.1519 C   0  0  0  0  0  0  0  0  0  0  0  0
  -10.2073  -25.8846   27.4137 N   0  0  0  0  0  0  0  0  0  0  0  0
  -10.4800  -25.4736   28.6819 C   0  0  0  0  0  0  0  0  0  0  0  0
  -11.3477  -26.3437   29.2575 C   0  0  0  0  0  0  0  0  0  0  0  0
  -11.6590  -27.2673   28.2732 N   0  0  0  0  0  0  0  0  0  0  0  0
  -12.7593  -28.1822   28.4703 C   0  0  0  0  0  0  0  0  0  0  0  0
  -13.0482  -28.3569   29.7901 F   0  0  0  0  0  0  0  0  0  0  0  0
  -12.5304  -29.4382   28.0136 F   0  0  0  0  0  0  0  0  0  0  0  0
  -10.1216  -31.7292   24.3394 C   0  0  0  0  0  0  0  0  0  0  0  0
  -11.1580  -32.5374   24.7983 C   0  0  0  0  0  0  0  0  0  0  0  0
  -11.1577  -33.9529   24.5540 C   0  0  0  0  0  0  0  0  0  0  0  0
  -10.1171  -34.5877   23.8235 C   0  0  0  0  0  0  0  0  0  0  0  0
   -9.8890  -35.9547   23.6689 N   0  0  0  0  0  0  0  0  0  0  0  0
   -8.8389  -36.1452   22.8988 C   0  0  0  0  0  0  0  0  0  0  0  0
   -8.0871  -34.7356   22.2856 S   0  0  0  0  0  0  0  0  0  0  0  0
   -9.1801  -33.7589   23.2130 C   0  0  0  0  0  0  0  0  0  0  0  0
   -9.1893  -32.3554   23.4448 C   0  0  0  0  0  0  0  0  0  0  0  0
  -10.9910  -27.4587   24.8839 H   0  0  0  0  0  0  0  0  0  0  0  0
   -9.4228  -27.7514   25.7254 H   0  0  0  0  0  0  0  0  0  0  0  0
  -10.0306  -24.5868   29.0988 H   0  0  0  0  0  0  0  0  0  0  0  0
  -11.7867  -26.3674   30.2436 H   0  0  0  0  0  0  0  0  0  0  0  0
  -13.6486  -27.7493   28.0017 H   0  0  0  0  0  0  0  0  0  0  0  0
  -11.9291  -32.1111   25.4339 H   0  0  0  0  0  0  0  0  0  0  0  0
  -11.9265  -34.5733   25.0080 H   0  0  0  0  0  0  0  0  0  0  0  0
   -8.4823  -37.1334   22.6408 H   0  0  0  0  0  0  0  0  0  0  0  0
   -8.3870  -31.7570   23.0086 H   0  0  0  0  0  0  0  0  0  0  0  0
  1  2  2  0
  2  3  1  0
  3  4  1  0
  4  5  1  0
  5  6  2  0
  6  7  1  0
  7  8  2  0
  8  9  1  0
  9 10  1  0
 10 11  1  0
 10 12  1  0
  2 13  1  0
 13 14  2  0
 14 15  1  0
 15 16  2  0
 16 17  1  0
 17 18  2  0
 18 19  1  0
 19 20  1  0
 20 21  2  0
  9  5  1  0
 21 13  1  0
 20 16  1  0
  4 22  1  0
  4 23  1  0
  7 24  1  0
  8 25  1  0
 10 26  1  0
 14 27  1  0
 15 28  1  0
 18 29  1  0
 21 30  1  0
M  END
>  <Energy>  (313) 
105.92262197873887

>  <compound_id>  (313) 
12557

>  <target_id>  (313) 
1

>  <reference_id>  (313) 
115

>  <inspiration_ids>  (313) 
[115, 68]

>  <energy_score>  (313) 
10.588135739294216

>  <distance_score>  (313) 
3.5023327806146263

>  <path>  (313) 
/opt/xchem-fragalysis-2/maxwin/BulkDock/SCRATCH/511014/C12557-P115/C12557-P115.minimised.mol

>  <scratch_subdir>  (313) 
/opt/xchem-fragalysis-2/maxwin/BulkDock/SCRATCH/511014/C12557-P115

>  <fragmenstein_runtime>  (313) 
2.094852924346924

>  <fragmenstein_outcome>  (313) 
too moved

>  <fragmenstein_mode>  (313) 
expansion

>  <fragmenstein_error>  (313) 


$$$$
C12557-P68
     RDKit          3D

 30 32  0  0  0  0  0  0  0  0999 V2000
  -11.6792  -32.3733   26.0983 O   0  0  0  0  0  0  0  0  0  0  0  0
  -12.6477  -31.6267   26.1697 C   0  0  0  0  0  0  0  0  0  0  0  0
  -12.4915  -30.2984   26.5480 O   0  0  0  0  0  0  0  0  0  0  0  0
  -11.0454  -29.2232   27.2570 C   0  0  0  0  0  0  0  0  0  0  0  0
  -10.7192  -27.8547   27.0451 C   0  0  0  0  0  0  0  0  0  0  0  0
  -11.0022  -27.0609   26.0386 N   0  0  0  0  0  0  0  0  0  0  0  0
  -10.5613  -25.8443   26.4065 C   0  0  0  0  0  0  0  0  0  0  0  0
   -9.9783  -25.8964   27.6333 C   0  0  0  0  0  0  0  0  0  0  0  0
  -10.1115  -27.2425   28.1571 N   0  0  0  0  0  0  0  0  0  0  0  0
   -9.4576  -27.8472   29.6325 C   0  0  0  0  0  0  0  0  0  0  0  0
   -8.5467  -28.8187   29.3609 F   0  0  0  0  0  0  0  0  0  0  0  0
  -10.2127  -28.2640   30.7225 F   0  0  0  0  0  0  0  0  0  0  0  0
  -13.8747  -32.3484   25.7400 C   0  0  0  0  0  0  0  0  0  0  0  0
  -14.5436  -33.0174   26.7633 C   0  0  0  0  0  0  0  0  0  0  0  0
  -14.7248  -34.4161   26.6916 C   0  0  0  0  0  0  0  0  0  0  0  0
  -14.1876  -35.1598   25.6135 C   0  0  0  0  0  0  0  0  0  0  0  0
  -14.0748  -36.5399   25.5316 N   0  0  0  0  0  0  0  0  0  0  0  0
  -13.4596  -36.8684   24.4159 C   0  0  0  0  0  0  0  0  0  0  0  0
  -13.0231  -35.5784   23.3797 S   0  0  0  0  0  0  0  0  0  0  0  0
  -13.6583  -34.4619   24.5330 C   0  0  0  0  0  0  0  0  0  0  0  0
  -13.6073  -33.0564   24.5208 C   0  0  0  0  0  0  0  0  0  0  0  0
  -11.4539  -28.9469   28.1968 H   0  0  0  0  0  0  0  0  0  0  0  0
  -10.1580  -29.8603   27.3322 H   0  0  0  0  0  0  0  0  0  0  0  0
  -10.6868  -24.9090   25.9013 H   0  0  0  0  0  0  0  0  0  0  0  0
   -9.6306  -25.0622   28.2366 H   0  0  0  0  0  0  0  0  0  0  0  0
   -8.9297  -27.0293   30.1299 H   0  0  0  0  0  0  0  0  0  0  0  0
  -14.7434  -32.5196   27.7104 H   0  0  0  0  0  0  0  0  0  0  0  0
  -15.1492  -34.9508   27.5377 H   0  0  0  0  0  0  0  0  0  0  0  0
  -13.2514  -37.8979   24.1544 H   0  0  0  0  0  0  0  0  0  0  0  0
  -13.0098  -32.5981   23.7336 H   0  0  0  0  0  0  0  0  0  0  0  0
  1  2  2  0
  2  3  1  0
  3  4  1  0
  4  5  1  0
  5  6  2  0
  6  7  1  0
  7  8  2  0
  8  9  1  0
  9 10  1  0
 10 11  1  0
 10 12  1  0
  2 13  1  0
 13 14  2  0
 14 15  1  0
 15 16  2  0
 16 17  1  0
 17 18  2  0
 18 19  1  0
 19 20  1  0
 20 21  2  0
  9  5  1  0
 21 13  1  0
 20 16  1  0
  4 22  1  0
  4 23  1  0
  7 24  1  0
  8 25  1  0
 10 26  1  0
 14 27  1  0
 15 28  1  0
 18 29  1  0
 21 30  1  0
M  END
>  <Energy>  (314) 
235.26595846706974

>  <compound_id>  (314) 
12557

>  <target_id>  (314) 
1

>  <reference_id>  (314) 
68

>  <inspiration_ids>  (314) 
[115, 68]

>  <energy_score>  (314) 
129.71386501077666

>  <distance_score>  (314) 
5.135715574759628

>  <path>  (314) 
/opt/xchem-fragalysis-2/maxwin/BulkDock/SCRATCH/511014/C12557-P68/C12557-P68.minimised.mol

>  <scratch_subdir>  (314) 
/opt/xchem-fragalysis-2/maxwin/BulkDock/SCRATCH/511014/C12557-P68

>  <fragmenstein_runtime>  (314) 
6.070107936859131

>  <fragmenstein_outcome>  (314) 
too moved

>  <fragmenstein_mode>  (314) 
expansion

>  <fragmenstein_error>  (314) 


$$$$
C12558-P115
     RDKit          3D

 31 33  0  0  0  0  0  0  0  0999 V2000
  -14.2740  -31.9313   26.5734 O   0  0  0  0  0  0  0  0  0  0  0  0
  -13.1331  -31.6236   26.6101 C   0  0  0  0  0  0  0  0  0  0  0  0
  -12.3824  -30.5445   27.5219 N   0  0  0  0  0  0  0  0  0  0  0  0
  -12.9213  -29.6561   28.7020 C   0  0  0  0  0  0  0  0  0  0  0  0
  -12.5930  -28.0736   28.6909 C   0  0  0  0  0  0  0  0  0  0  0  0
  -13.3387  -27.3110   27.9045 N   0  0  0  0  0  0  0  0  0  0  0  0
  -12.7357  -26.0977   27.7836 C   0  0  0  0  0  0  0  0  0  0  0  0
  -11.7928  -25.9573   28.7444 C   0  0  0  0  0  0  0  0  0  0  0  0
  -11.7377  -27.1847   29.3785 N   0  0  0  0  0  0  0  0  0  0  0  0
  -10.8254  -27.2527   30.4933 C   0  0  0  0  0  0  0  0  0  0  0  0
  -11.1492  -26.3077   31.4181 F   0  0  0  0  0  0  0  0  0  0  0  0
   -9.5791  -26.9294   30.0875 F   0  0  0  0  0  0  0  0  0  0  0  0
  -12.2598  -32.5353   25.5558 C   0  0  0  0  0  0  0  0  0  0  0  0
  -12.6324  -33.9090   25.5477 C   0  0  0  0  0  0  0  0  0  0  0  0
  -11.8707  -34.9464   24.9464 C   0  0  0  0  0  0  0  0  0  0  0  0
  -10.7240  -34.6441   24.1978 C   0  0  0  0  0  0  0  0  0  0  0  0
   -9.8343  -35.5660   23.6458 N   0  0  0  0  0  0  0  0  0  0  0  0
   -8.9313  -34.9245   22.9426 C   0  0  0  0  0  0  0  0  0  0  0  0
   -9.1023  -33.2160   22.8880 S   0  0  0  0  0  0  0  0  0  0  0  0
  -10.4341  -33.2858   24.0086 C   0  0  0  0  0  0  0  0  0  0  0  0
  -11.1652  -32.2258   24.7061 C   0  0  0  0  0  0  0  0  0  0  0  0
  -11.4115  -30.4752   27.2377 H   0  0  0  0  0  0  0  0  0  0  0  0
  -12.6766  -30.1333   29.6552 H   0  0  0  0  0  0  0  0  0  0  0  0
  -14.0138  -29.7357   28.6209 H   0  0  0  0  0  0  0  0  0  0  0  0
  -13.0448  -25.3769   27.0380 H   0  0  0  0  0  0  0  0  0  0  0  0
  -11.1556  -25.1262   29.0209 H   0  0  0  0  0  0  0  0  0  0  0  0
  -10.8236  -28.2283   30.9622 H   0  0  0  0  0  0  0  0  0  0  0  0
  -13.4974  -34.2173   26.1401 H   0  0  0  0  0  0  0  0  0  0  0  0
  -12.1649  -35.9831   25.0832 H   0  0  0  0  0  0  0  0  0  0  0  0
   -8.1364  -35.4275   22.4079 H   0  0  0  0  0  0  0  0  0  0  0  0
  -10.8282  -31.1993   24.5811 H   0  0  0  0  0  0  0  0  0  0  0  0
  1  2  2  0
  2  3  1  0
  3  4  1  0
  4  5  1  0
  5  6  2  0
  6  7  1  0
  7  8  2  0
  8  9  1  0
  9 10  1  0
 10 11  1  0
 10 12  1  0
  2 13  1  0
 13 14  2  0
 14 15  1  0
 15 16  2  0
 16 17  1  0
 17 18  2  0
 18 19  1  0
 19 20  1  0
 20 21  2  0
  9  5  1  0
 21 13  1  0
 20 16  1  0
  3 22  1  0
  4 23  1  0
  4 24  1  0
  7 25  1  0
  8 26  1  0
 10 27  1  0
 14 28  1  0
 15 29  1  0
 18 30  1  0
 21 31  1  0
M  END
>  <Energy>  (315) 
103.24379184700302

>  <compound_id>  (315) 
12558

>  <target_id>  (315) 
1

>  <reference_id>  (315) 
115

>  <inspiration_ids>  (315) 
[115, 68]

>  <energy_score>  (315) 
-2.102634935819765

>  <distance_score>  (315) 
3.786050511722428

>  <path>  (315) 
/opt/xchem-fragalysis-2/maxwin/BulkDock/SCRATCH/511014/C12558-P115/C12558-P115.minimised.mol

>  <scratch_subdir>  (315) 
/opt/xchem-fragalysis-2/maxwin/BulkDock/SCRATCH/511014/C12558-P115

>  <fragmenstein_runtime>  (315) 
3.3239333629608154

>  <fragmenstein_outcome>  (315) 
too moved

>  <fragmenstein_mode>  (315) 
expansion

>  <fragmenstein_error>  (315) 


$$$$
C12558-P68
     RDKit          3D

 31 33  0  0  0  0  0  0  0  0999 V2000
  -13.6680  -30.9654   26.4988 O   0  0  0  0  0  0  0  0  0  0  0  0
  -12.7038  -31.6255   26.2335 C   0  0  0  0  0  0  0  0  0  0  0  0
  -11.2467  -31.3761   26.4946 N   0  0  0  0  0  0  0  0  0  0  0  0
  -10.3225  -29.8417   27.2451 C   0  0  0  0  0  0  0  0  0  0  0  0
  -10.6935  -28.4135   27.3195 C   0  0  0  0  0  0  0  0  0  0  0  0
  -11.1204  -27.7445   26.2457 N   0  0  0  0  0  0  0  0  0  0  0  0
  -10.7573  -26.4859   26.3724 C   0  0  0  0  0  0  0  0  0  0  0  0
  -10.1039  -26.3620   27.5511 C   0  0  0  0  0  0  0  0  0  0  0  0
  -10.1479  -27.5810   28.2860 N   0  0  0  0  0  0  0  0  0  0  0  0
   -9.3855  -27.9172   29.6790 C   0  0  0  0  0  0  0  0  0  0  0  0
   -8.7154  -26.8788   30.2781 F   0  0  0  0  0  0  0  0  0  0  0  0
   -8.4438  -28.8647   29.4371 F   0  0  0  0  0  0  0  0  0  0  0  0
  -12.8578  -33.0117   25.5201 C   0  0  0  0  0  0  0  0  0  0  0  0
  -13.8993  -33.8472   25.9145 C   0  0  0  0  0  0  0  0  0  0  0  0
  -13.9166  -35.2050   25.5287 C   0  0  0  0  0  0  0  0  0  0  0  0
  -12.8765  -35.7499   24.7401 C   0  0  0  0  0  0  0  0  0  0  0  0
  -12.7106  -37.0761   24.3767 N   0  0  0  0  0  0  0  0  0  0  0  0
  -11.6220  -37.2079   23.6498 C   0  0  0  0  0  0  0  0  0  0  0  0
  -10.7415  -35.7740   23.3379 S   0  0  0  0  0  0  0  0  0  0  0  0
  -11.8827  -34.8909   24.2851 C   0  0  0  0  0  0  0  0  0  0  0  0
  -11.8766  -33.5285   24.6309 C   0  0  0  0  0  0  0  0  0  0  0  0
  -10.6965  -32.1110   26.0574 H   0  0  0  0  0  0  0  0  0  0  0  0
   -9.7434  -30.3733   27.9542 H   0  0  0  0  0  0  0  0  0  0  0  0
   -9.3583  -29.5072   26.8854 H   0  0  0  0  0  0  0  0  0  0  0  0
  -10.9829  -25.6907   25.7016 H   0  0  0  0  0  0  0  0  0  0  0  0
   -9.7588  -25.4269   27.9953 H   0  0  0  0  0  0  0  0  0  0  0  0
  -10.0237  -28.2063   30.5134 H   0  0  0  0  0  0  0  0  0  0  0  0
  -14.6695  -33.4745   26.5887 H   0  0  0  0  0  0  0  0  0  0  0  0
  -14.7107  -35.8594   25.8793 H   0  0  0  0  0  0  0  0  0  0  0  0
  -11.3004  -38.1662   23.2621 H   0  0  0  0  0  0  0  0  0  0  0  0
  -11.0547  -32.9426   24.2428 H   0  0  0  0  0  0  0  0  0  0  0  0
  1  2  2  0
  2  3  1  0
  3  4  1  0
  4  5  1  0
  5  6  2  0
  6  7  1  0
  7  8  2  0
  8  9  1  0
  9 10  1  0
 10 11  1  0
 10 12  1  0
  2 13  1  0
 13 14  2  0
 14 15  1  0
 15 16  2  0
 16 17  1  0
 17 18  2  0
 18 19  1  0
 19 20  1  0
 20 21  2  0
  9  5  1  0
 21 13  1  0
 20 16  1  0
  3 22  1  0
  4 23  1  0
  4 24  1  0
  7 25  1  0
  8 26  1  0
 10 27  1  0
 14 28  1  0
 15 29  1  0
 18 30  1  0
 21 31  1  0
M  END
>  <Energy>  (316) 
178.19159024500195

>  <compound_id>  (316) 
12558

>  <target_id>  (316) 
1

>  <reference_id>  (316) 
68

>  <inspiration_ids>  (316) 
[115, 68]

>  <energy_score>  (316) 
117.60317046260667

>  <distance_score>  (316) 
4.268932565465118

>  <path>  (316) 
/opt/xchem-fragalysis-2/maxwin/BulkDock/SCRATCH/511014/C12558-P68/C12558-P68.minimised.mol

>  <scratch_subdir>  (316) 
/opt/xchem-fragalysis-2/maxwin/BulkDock/SCRATCH/511014/C12558-P68

>  <fragmenstein_runtime>  (316) 
8.11882758140564

>  <fragmenstein_outcome>  (316) 
too moved

>  <fragmenstein_mode>  (316) 
expansion

>  <fragmenstein_error>  (316) 


$$$$
C9289-P81
     RDKit          3D

 41 44  0  0  0  0  0  0  0  0999 V2000
   -2.4870   -1.6423    8.4940 C   0  0  0  0  0  0  0  0  0  0  0  0
   -1.5934   -0.8143    9.2874 C   0  0  0  0  0  0  0  0  0  0  0  0
    0.2535   -1.0876   10.3742 C   0  0  0  0  0  0  0  0  0  0  0  0
    1.4690   -0.7917   11.8913 N   0  0  0  0  0  0  0  0  0  0  0  0
    1.3089   -1.5690   13.4104 C   0  0  0  0  0  0  0  0  0  0  0  0
    2.2261   -3.3152   13.5095 C   0  0  0  0  0  0  0  0  0  0  0  0
    3.3385   -3.4593   12.6487 O   0  0  0  0  0  0  0  0  0  0  0  0
    3.3401   -2.5030   11.4940 C   0  0  0  0  0  0  0  0  0  0  0  0
    3.2637   -0.4011   11.6431 C   0  0  0  0  0  0  0  0  0  0  0  0
    5.2565   -0.7335   11.7181 C   0  0  0  0  0  0  0  0  0  0  0  0
    6.0986   -1.1045   12.8558 C   0  0  0  0  0  0  0  0  0  0  0  0
    7.2255   -1.6290   12.5551 C   0  0  0  0  0  0  0  0  0  0  0  0
    7.4526   -1.3170   11.3289 N   0  0  0  0  0  0  0  0  0  0  0  0
    6.4284   -0.6619   10.8937 N   0  0  0  0  0  0  0  0  0  0  0  0
   -2.7814    0.3859    9.1234 C   0  0  0  0  0  0  0  0  0  0  0  0
   -4.0532    0.6062    8.4571 O   0  0  0  0  0  0  0  0  0  0  0  0
   -4.6652   -0.4681    7.9941 C   0  0  0  0  0  0  0  0  0  0  0  0
   -6.0093   -0.3569    7.6146 C   0  0  0  0  0  0  0  0  0  0  0  0
   -6.6753   -1.4603    7.1090 C   0  0  0  0  0  0  0  0  0  0  0  0
   -5.9689   -2.6416    6.9655 C   0  0  0  0  0  0  0  0  0  0  0  0
   -4.6070   -2.6881    7.3412 C   0  0  0  0  0  0  0  0  0  0  0  0
   -3.9153   -1.5910    7.8972 C   0  0  0  0  0  0  0  0  0  0  0  0
   -2.3985   -2.6739    8.3456 H   0  0  0  0  0  0  0  0  0  0  0  0
    1.0809   -0.6181    9.8656 H   0  0  0  0  0  0  0  0  0  0  0  0
   -0.2208   -0.8407   11.3316 H   0  0  0  0  0  0  0  0  0  0  0  0
    0.3399   -1.8823   13.7556 H   0  0  0  0  0  0  0  0  0  0  0  0
    1.3395   -0.7072   14.0471 H   0  0  0  0  0  0  0  0  0  0  0  0
    2.3090   -3.8458   14.4413 H   0  0  0  0  0  0  0  0  0  0  0  0
    1.7428   -4.2359   13.1694 H   0  0  0  0  0  0  0  0  0  0  0  0
    4.1414   -3.0593   11.1509 H   0  0  0  0  0  0  0  0  0  0  0  0
    2.6850   -2.8654   10.7174 H   0  0  0  0  0  0  0  0  0  0  0  0
    3.0827    0.4365   12.3693 H   0  0  0  0  0  0  0  0  0  0  0  0
    5.9594   -1.2839   13.9067 H   0  0  0  0  0  0  0  0  0  0  0  0
    7.7643   -2.1970   13.3027 H   0  0  0  0  0  0  0  0  0  0  0  0
    6.5493    0.0278   10.1757 H   0  0  0  0  0  0  0  0  0  0  0  0
   -3.3906    0.1832    9.9636 H   0  0  0  0  0  0  0  0  0  0  0  0
   -2.3598    1.3399    8.9080 H   0  0  0  0  0  0  0  0  0  0  0  0
   -6.5310    0.5882    7.7325 H   0  0  0  0  0  0  0  0  0  0  0  0
   -7.7236   -1.4013    6.8326 H   0  0  0  0  0  0  0  0  0  0  0  0
   -6.4605   -3.5332    6.5838 H   0  0  0  0  0  0  0  0  0  0  0  0
   -4.1105   -3.6520    7.2864 H   0  0  0  0  0  0  0  0  0  0  0  0
  1  2  2  0
  2  3  1  0
  3  4  1  0
  4  5  1  0
  5  6  1  0
  6  7  1  0
  7  8  1  0
  8  9  1  0
  9 10  1  0
 10 11  2  0
 11 12  1  0
 12 13  2  0
 13 14  1  0
  2 15  1  0
 15 16  1  0
 16 17  1  0
 17 18  2  0
 18 19  1  0
 19 20  2  0
 20 21  1  0
 21 22  2  0
 22  1  1  0
  9  4  1  0
 14 10  1  0
 22 17  1  0
  1 23  1  0
  3 24  1  0
  3 25  1  0
  5 26  1  0
  5 27  1  0
  6 28  1  0
  6 29  1  0
  8 30  1  0
  8 31  1  0
  9 32  1  0
 11 33  1  0
 12 34  1  0
 14 35  1  0
 15 36  1  0
 15 37  1  0
 18 38  1  0
 19 39  1  0
 20 40  1  0
 21 41  1  0
M  END
>  <Energy>  (317) 
931.21773604131124

>  <compound_id>  (317) 
9289

>  <target_id>  (317) 
1

>  <reference_id>  (317) 
81

>  <inspiration_ids>  (317) 
[91, 81]

>  <energy_score>  (317) 
802.9820977025718

>  <distance_score>  (317) 
5.432574524855813

>  <path>  (317) 
/opt/xchem-fragalysis-2/maxwin/BulkDock/SCRATCH/511014/C9289-P81/C9289-P81.minimised.mol

>  <scratch_subdir>  (317) 
/opt/xchem-fragalysis-2/maxwin/BulkDock/SCRATCH/511014/C9289-P81

>  <fragmenstein_runtime>  (317) 
11.849939823150635

>  <fragmenstein_outcome>  (317) 
too moved

>  <fragmenstein_mode>  (317) 
expansion

>  <fragmenstein_error>  (317) 


$$$$
C9290-P81
     RDKit          3D

 42 45  0  0  0  0  0  0  0  0999 V2000
    0.9347   -0.9717   12.4818 O   0  0  0  0  0  0  0  0  0  0  0  0
    1.3687   -1.2563   11.2830 C   0  0  0  0  0  0  0  0  0  0  0  0
   -0.1246   -0.8651    9.8972 C   0  0  0  0  0  0  0  0  0  0  0  0
   -1.6252   -1.3021    8.8996 C   0  0  0  0  0  0  0  0  0  0  0  0
   -3.1852   -1.3414    7.9834 C   0  0  0  0  0  0  0  0  0  0  0  0
   -3.8953   -2.4629    7.5381 C   0  0  0  0  0  0  0  0  0  0  0  0
   -5.2856   -2.4396    7.2269 C   0  0  0  0  0  0  0  0  0  0  0  0
   -6.0324   -1.2950    7.4569 C   0  0  0  0  0  0  0  0  0  0  0  0
   -5.4003   -0.2395    8.0777 C   0  0  0  0  0  0  0  0  0  0  0  0
   -4.0397   -0.3605    8.3664 C   0  0  0  0  0  0  0  0  0  0  0  0
   -3.4203    0.3728    9.2875 O   0  0  0  0  0  0  0  0  0  0  0  0
   -1.8904   -0.0512    9.1878 C   0  0  0  0  0  0  0  0  0  0  0  0
    3.1120   -2.2303   11.2497 N   0  0  0  0  0  0  0  0  0  0  0  0
    4.6217   -0.8793   11.2007 C   0  0  0  0  0  0  0  0  0  0  0  0
    6.2889   -1.0279   12.0559 C   0  0  0  0  0  0  0  0  0  0  0  0
    7.1583   -1.8011   13.0667 C   0  0  0  0  0  0  0  0  0  0  0  0
    8.1577   -1.5982   14.5727 C   0  0  0  0  0  0  0  0  0  0  0  0
    9.4337   -2.1362   14.8270 C   0  0  0  0  0  0  0  0  0  0  0  0
   10.1036   -1.2275   15.6462 C   0  0  0  0  0  0  0  0  0  0  0  0
    9.2435   -0.4101   16.2356 N   0  0  0  0  0  0  0  0  0  0  0  0
    8.0673   -0.6989   15.6409 N   0  0  0  0  0  0  0  0  0  0  0  0
    6.0439   -2.6016   13.5252 C   0  0  0  0  0  0  0  0  0  0  0  0
    4.2231   -2.9839   12.5643 C   0  0  0  0  0  0  0  0  0  0  0  0
   -2.0359   -2.3070    8.8118 H   0  0  0  0  0  0  0  0  0  0  0  0
   -3.4249   -3.4444    7.5488 H   0  0  0  0  0  0  0  0  0  0  0  0
   -5.7739   -3.3377    6.8541 H   0  0  0  0  0  0  0  0  0  0  0  0
   -7.0977   -1.2708    7.2485 H   0  0  0  0  0  0  0  0  0  0  0  0
   -5.9780    0.6115    8.4159 H   0  0  0  0  0  0  0  0  0  0  0  0
   -1.8472    0.7287    8.4209 H   0  0  0  0  0  0  0  0  0  0  0  0
   -2.2009    0.1348   10.1277 H   0  0  0  0  0  0  0  0  0  0  0  0
    3.9478    0.0207   11.4986 H   0  0  0  0  0  0  0  0  0  0  0  0
    4.7027   -0.0418   10.4806 H   0  0  0  0  0  0  0  0  0  0  0  0
    6.9709   -0.7806   11.2351 H   0  0  0  0  0  0  0  0  0  0  0  0
    5.9988   -0.3074   12.7461 H   0  0  0  0  0  0  0  0  0  0  0  0
    7.6781   -0.8270   13.0241 H   0  0  0  0  0  0  0  0  0  0  0  0
    9.9627   -2.9180   14.3127 H   0  0  0  0  0  0  0  0  0  0  0  0
   11.1559   -1.1903   15.9013 H   0  0  0  0  0  0  0  0  0  0  0  0
    7.2787   -0.1578   15.9936 H   0  0  0  0  0  0  0  0  0  0  0  0
    5.8035   -2.1886   14.5388 H   0  0  0  0  0  0  0  0  0  0  0  0
    6.5240   -3.3291   14.1283 H   0  0  0  0  0  0  0  0  0  0  0  0
    4.5606   -3.8115   11.9194 H   0  0  0  0  0  0  0  0  0  0  0  0
    3.4901   -3.5219   13.2152 H   0  0  0  0  0  0  0  0  0  0  0  0
  1  2  2  0
  2  3  1  0
  3  4  2  0
  4  5  1  0
  5  6  2  0
  6  7  1  0
  7  8  2  0
  8  9  1  0
  9 10  2  0
 10 11  1  0
 11 12  1  0
  2 13  1  0
 13 14  1  0
 14 15  1  0
 15 16  1  0
 16 17  1  0
 17 18  2  0
 18 19  1  0
 19 20  2  0
 20 21  1  0
 16 22  1  0
 22 23  1  0
 12  3  1  0
 23 13  1  0
 10  5  1  0
 21 17  1  0
  4 24  1  0
  6 25  1  0
  7 26  1  0
  8 27  1  0
  9 28  1  0
 12 29  1  0
 12 30  1  0
 14 31  1  0
 14 32  1  0
 15 33  1  0
 15 34  1  0
 16 35  1  0
 18 36  1  0
 19 37  1  0
 21 38  1  0
 22 39  1  0
 22 40  1  0
 23 41  1  0
 23 42  1  0
M  END
>  <Energy>  (318) 
1422.0813995606336

>  <compound_id>  (318) 
9290

>  <target_id>  (318) 
1

>  <reference_id>  (318) 
81

>  <inspiration_ids>  (318) 
[91, 81]

>  <energy_score>  (318) 
1369.3628361670212

>  <distance_score>  (318) 
4.288483911229441

>  <path>  (318) 
/opt/xchem-fragalysis-2/maxwin/BulkDock/SCRATCH/511014/C9290-P81/C9290-P81.minimised.mol

>  <scratch_subdir>  (318) 
/opt/xchem-fragalysis-2/maxwin/BulkDock/SCRATCH/511014/C9290-P81

>  <fragmenstein_runtime>  (318) 
15.033370018005371

>  <fragmenstein_outcome>  (318) 
too moved

>  <fragmenstein_mode>  (318) 
expansion

>  <fragmenstein_error>  (318) 


$$$$
C9291-P81
     RDKit          3D

 42 45  0  0  0  0  0  0  0  0999 V2000
   -0.8600    0.4494   12.2917 O   0  0  0  0  0  0  0  0  0  0  0  0
   -0.2788   -0.4592   11.6538 C   0  0  0  0  0  0  0  0  0  0  0  0
   -1.5523   -1.0310    9.9658 C   0  0  0  0  0  0  0  0  0  0  0  0
   -2.4255   -1.7907    8.8309 C   0  0  0  0  0  0  0  0  0  0  0  0
   -3.8305   -1.5463    8.0754 C   0  0  0  0  0  0  0  0  0  0  0  0
   -4.5768   -2.5159    7.3838 C   0  0  0  0  0  0  0  0  0  0  0  0
   -5.9365   -2.3310    7.0461 C   0  0  0  0  0  0  0  0  0  0  0  0
   -6.5733   -1.1448    7.3743 C   0  0  0  0  0  0  0  0  0  0  0  0
   -5.8697   -0.1912    8.0919 C   0  0  0  0  0  0  0  0  0  0  0  0
   -4.5412   -0.4400    8.4430 C   0  0  0  0  0  0  0  0  0  0  0  0
   -3.8987    0.3496    9.3103 O   0  0  0  0  0  0  0  0  0  0  0  0
   -2.4909    0.2368    9.0927 C   0  0  0  0  0  0  0  0  0  0  0  0
    1.4011   -0.8348   11.9345 N   0  0  0  0  0  0  0  0  0  0  0  0
    1.5796   -2.1627   13.3827 C   0  0  0  0  0  0  0  0  0  0  0  0
    2.7516   -3.4937   12.9775 C   0  0  0  0  0  0  0  0  0  0  0  0
    3.6845   -3.0225   11.7195 C   0  0  0  0  0  0  0  0  0  0  0  0
    4.1170   -1.1574   11.6763 C   0  0  0  0  0  0  0  0  0  0  0  0
    5.9465   -1.2724   12.4796 C   0  0  0  0  0  0  0  0  0  0  0  0
    7.1426   -0.9577   11.9274 C   0  0  0  0  0  0  0  0  0  0  0  0
    7.9243   -0.6304   13.0574 C   0  0  0  0  0  0  0  0  0  0  0  0
    7.5398   -1.3087   14.1461 N   0  0  0  0  0  0  0  0  0  0  0  0
    6.5114   -1.9698   13.6219 N   0  0  0  0  0  0  0  0  0  0  0  0
    2.4010   -0.2292   12.7039 C   0  0  0  0  0  0  0  0  0  0  0  0
   -2.5774   -2.8426    8.7526 H   0  0  0  0  0  0  0  0  0  0  0  0
   -4.1574   -3.5019    7.2178 H   0  0  0  0  0  0  0  0  0  0  0  0
   -6.4859   -3.1281    6.5499 H   0  0  0  0  0  0  0  0  0  0  0  0
   -7.6198   -0.9918    7.1262 H   0  0  0  0  0  0  0  0  0  0  0  0
   -6.3736    0.7089    8.4273 H   0  0  0  0  0  0  0  0  0  0  0  0
   -2.2450    1.2701    8.9867 H   0  0  0  0  0  0  0  0  0  0  0  0
   -2.2468    0.0430    8.0360 H   0  0  0  0  0  0  0  0  0  0  0  0
    1.4656   -1.2434   13.9551 H   0  0  0  0  0  0  0  0  0  0  0  0
    0.6266   -2.4425   13.9362 H   0  0  0  0  0  0  0  0  0  0  0  0
    2.2417   -4.4003   12.6498 H   0  0  0  0  0  0  0  0  0  0  0  0
    3.2692   -3.8859   13.8285 H   0  0  0  0  0  0  0  0  0  0  0  0
    4.5734   -3.6438   11.8220 H   0  0  0  0  0  0  0  0  0  0  0  0
    3.1708   -3.2828   10.7945 H   0  0  0  0  0  0  0  0  0  0  0  0
    4.5144   -0.3463   11.0024 H   0  0  0  0  0  0  0  0  0  0  0  0
    7.2094   -0.6798   10.9003 H   0  0  0  0  0  0  0  0  0  0  0  0
    8.8124   -0.0119   13.1618 H   0  0  0  0  0  0  0  0  0  0  0  0
    6.1096   -2.6633   14.2356 H   0  0  0  0  0  0  0  0  0  0  0  0
    2.7966    0.5836   12.0354 H   0  0  0  0  0  0  0  0  0  0  0  0
    2.1987    0.7202   13.2421 H   0  0  0  0  0  0  0  0  0  0  0  0
  1  2  2  0
  2  3  1  0
  3  4  2  0
  4  5  1  0
  5  6  2  0
  6  7  1  0
  7  8  2  0
  8  9  1  0
  9 10  2  0
 10 11  1  0
 11 12  1  0
  2 13  1  0
 13 14  1  0
 14 15  1  0
 15 16  1  0
 16 17  1  0
 17 18  1  0
 18 19  2  0
 19 20  1  0
 20 21  2  0
 21 22  1  0
 17 23  1  0
 12  3  1  0
 23 13  1  0
 10  5  1  0
 22 18  1  0
  4 24  1  0
  6 25  1  0
  7 26  1  0
  8 27  1  0
  9 28  1  0
 12 29  1  0
 12 30  1  0
 14 31  1  0
 14 32  1  0
 15 33  1  0
 15 34  1  0
 16 35  1  0
 16 36  1  0
 17 37  1  0
 19 38  1  0
 20 39  1  0
 22 40  1  0
 23 41  1  0
 23 42  1  0
M  END
>  <Energy>  (319) 
894.39614791576616

>  <compound_id>  (319) 
9291

>  <target_id>  (319) 
1

>  <reference_id>  (319) 
81

>  <inspiration_ids>  (319) 
[91, 81]

>  <energy_score>  (319) 
816.6589412577221

>  <distance_score>  (319) 
5.013799297999767

>  <path>  (319) 
/opt/xchem-fragalysis-2/maxwin/BulkDock/SCRATCH/511014/C9291-P81/C9291-P81.minimised.mol

>  <scratch_subdir>  (319) 
/opt/xchem-fragalysis-2/maxwin/BulkDock/SCRATCH/511014/C9291-P81

>  <fragmenstein_runtime>  (319) 
14.0810866355896

>  <fragmenstein_outcome>  (319) 
too moved

>  <fragmenstein_mode>  (319) 
expansion

>  <fragmenstein_error>  (319) 


$$$$
C9290-P81
     RDKit          3D

 42 45  0  0  0  0  0  0  0  0999 V2000
    0.9347   -0.9717   12.4818 O   0  0  0  0  0  0  0  0  0  0  0  0
    1.3687   -1.2563   11.2830 C   0  0  0  0  0  0  0  0  0  0  0  0
   -0.1246   -0.8651    9.8972 C   0  0  0  0  0  0  0  0  0  0  0  0
   -1.6252   -1.3021    8.8996 C   0  0  0  0  0  0  0  0  0  0  0  0
   -3.1852   -1.3414    7.9834 C   0  0  0  0  0  0  0  0  0  0  0  0
   -3.8953   -2.4629    7.5381 C   0  0  0  0  0  0  0  0  0  0  0  0
   -5.2856   -2.4396    7.2269 C   0  0  0  0  0  0  0  0  0  0  0  0
   -6.0324   -1.2950    7.4569 C   0  0  0  0  0  0  0  0  0  0  0  0
   -5.4003   -0.2395    8.0777 C   0  0  0  0  0  0  0  0  0  0  0  0
   -4.0397   -0.3605    8.3664 C   0  0  0  0  0  0  0  0  0  0  0  0
   -3.4203    0.3728    9.2875 O   0  0  0  0  0  0  0  0  0  0  0  0
   -1.8904   -0.0512    9.1878 C   0  0  0  0  0  0  0  0  0  0  0  0
    3.1120   -2.2303   11.2497 N   0  0  0  0  0  0  0  0  0  0  0  0
    4.6217   -0.8793   11.2007 C   0  0  0  0  0  0  0  0  0  0  0  0
    6.2889   -1.0279   12.0559 C   0  0  0  0  0  0  0  0  0  0  0  0
    7.1583   -1.8011   13.0667 C   0  0  0  0  0  0  0  0  0  0  0  0
    8.1577   -1.5982   14.5727 C   0  0  0  0  0  0  0  0  0  0  0  0
    9.4337   -2.1362   14.8270 C   0  0  0  0  0  0  0  0  0  0  0  0
   10.1036   -1.2275   15.6462 C   0  0  0  0  0  0  0  0  0  0  0  0
    9.2435   -0.4101   16.2356 N   0  0  0  0  0  0  0  0  0  0  0  0
    8.0673   -0.6989   15.6409 N   0  0  0  0  0  0  0  0  0  0  0  0
    6.0439   -2.6016   13.5252 C   0  0  0  0  0  0  0  0  0  0  0  0
    4.2231   -2.9839   12.5643 C   0  0  0  0  0  0  0  0  0  0  0  0
   -2.0359   -2.3070    8.8118 H   0  0  0  0  0  0  0  0  0  0  0  0
   -3.4249   -3.4444    7.5488 H   0  0  0  0  0  0  0  0  0  0  0  0
   -5.7739   -3.3377    6.8541 H   0  0  0  0  0  0  0  0  0  0  0  0
   -7.0977   -1.2708    7.2485 H   0  0  0  0  0  0  0  0  0  0  0  0
   -5.9780    0.6115    8.4159 H   0  0  0  0  0  0  0  0  0  0  0  0
   -1.8472    0.7287    8.4209 H   0  0  0  0  0  0  0  0  0  0  0  0
   -2.2009    0.1348   10.1277 H   0  0  0  0  0  0  0  0  0  0  0  0
    3.9478    0.0207   11.4986 H   0  0  0  0  0  0  0  0  0  0  0  0
    4.7027   -0.0418   10.4806 H   0  0  0  0  0  0  0  0  0  0  0  0
    6.9709   -0.7806   11.2351 H   0  0  0  0  0  0  0  0  0  0  0  0
    5.9988   -0.3074   12.7461 H   0  0  0  0  0  0  0  0  0  0  0  0
    7.6781   -0.8270   13.0241 H   0  0  0  0  0  0  0  0  0  0  0  0
    9.9627   -2.9180   14.3127 H   0  0  0  0  0  0  0  0  0  0  0  0
   11.1559   -1.1903   15.9013 H   0  0  0  0  0  0  0  0  0  0  0  0
    7.2787   -0.1578   15.9936 H   0  0  0  0  0  0  0  0  0  0  0  0
    5.8035   -2.1886   14.5388 H   0  0  0  0  0  0  0  0  0  0  0  0
    6.5240   -3.3291   14.1283 H   0  0  0  0  0  0  0  0  0  0  0  0
    4.5606   -3.8115   11.9194 H   0  0  0  0  0  0  0  0  0  0  0  0
    3.4901   -3.5219   13.2152 H   0  0  0  0  0  0  0  0  0  0  0  0
  1  2  2  0
  2  3  1  0
  3  4  2  0
  4  5  1  0
  5  6  2  0
  6  7  1  0
  7  8  2  0
  8  9  1  0
  9 10  2  0
 10 11  1  0
 11 12  1  0
  2 13  1  0
 13 14  1  0
 14 15  1  0
 15 16  1  0
 16 17  1  0
 17 18  2  0
 18 19  1  0
 19 20  2  0
 20 21  1  0
 16 22  1  0
 22 23  1  0
 12  3  1  0
 23 13  1  0
 10  5  1  0
 21 17  1  0
  4 24  1  0
  6 25  1  0
  7 26  1  0
  8 27  1  0
  9 28  1  0
 12 29  1  0
 12 30  1  0
 14 31  1  0
 14 32  1  0
 15 33  1  0
 15 34  1  0
 16 35  1  0
 18 36  1  0
 19 37  1  0
 21 38  1  0
 22 39  1  0
 22 40  1  0
 23 41  1  0
 23 42  1  0
M  END
>  <Energy>  (320) 
1422.0813995606336

>  <compound_id>  (320) 
9290

>  <target_id>  (320) 
1

>  <reference_id>  (320) 
81

>  <inspiration_ids>  (320) 
[91, 81]

>  <energy_score>  (320) 
1369.3628361670212

>  <distance_score>  (320) 
4.288483911229441

>  <path>  (320) 
/opt/xchem-fragalysis-2/maxwin/BulkDock/SCRATCH/511014/C9290-P81/C9290-P81.minimised.mol

>  <scratch_subdir>  (320) 
/opt/xchem-fragalysis-2/maxwin/BulkDock/SCRATCH/511014/C9290-P81

>  <fragmenstein_runtime>  (320) 
13.882481575012207

>  <fragmenstein_outcome>  (320) 
too moved

>  <fragmenstein_mode>  (320) 
expansion

>  <fragmenstein_error>  (320) 


$$$$
C9291-P81
     RDKit          3D

 42 45  0  0  0  0  0  0  0  0999 V2000
   -0.8600    0.4494   12.2917 O   0  0  0  0  0  0  0  0  0  0  0  0
   -0.2788   -0.4592   11.6538 C   0  0  0  0  0  0  0  0  0  0  0  0
   -1.5523   -1.0310    9.9658 C   0  0  0  0  0  0  0  0  0  0  0  0
   -2.4255   -1.7907    8.8309 C   0  0  0  0  0  0  0  0  0  0  0  0
   -3.8305   -1.5463    8.0754 C   0  0  0  0  0  0  0  0  0  0  0  0
   -4.5768   -2.5159    7.3838 C   0  0  0  0  0  0  0  0  0  0  0  0
   -5.9365   -2.3310    7.0461 C   0  0  0  0  0  0  0  0  0  0  0  0
   -6.5733   -1.1448    7.3743 C   0  0  0  0  0  0  0  0  0  0  0  0
   -5.8697   -0.1912    8.0919 C   0  0  0  0  0  0  0  0  0  0  0  0
   -4.5412   -0.4400    8.4430 C   0  0  0  0  0  0  0  0  0  0  0  0
   -3.8987    0.3496    9.3103 O   0  0  0  0  0  0  0  0  0  0  0  0
   -2.4909    0.2368    9.0927 C   0  0  0  0  0  0  0  0  0  0  0  0
    1.4011   -0.8348   11.9345 N   0  0  0  0  0  0  0  0  0  0  0  0
    1.5796   -2.1627   13.3827 C   0  0  0  0  0  0  0  0  0  0  0  0
    2.7516   -3.4937   12.9775 C   0  0  0  0  0  0  0  0  0  0  0  0
    3.6845   -3.0225   11.7195 C   0  0  0  0  0  0  0  0  0  0  0  0
    4.1170   -1.1574   11.6763 C   0  0  0  0  0  0  0  0  0  0  0  0
    5.9465   -1.2724   12.4796 C   0  0  0  0  0  0  0  0  0  0  0  0
    7.1426   -0.9577   11.9274 C   0  0  0  0  0  0  0  0  0  0  0  0
    7.9243   -0.6304   13.0574 C   0  0  0  0  0  0  0  0  0  0  0  0
    7.5398   -1.3087   14.1461 N   0  0  0  0  0  0  0  0  0  0  0  0
    6.5114   -1.9698   13.6219 N   0  0  0  0  0  0  0  0  0  0  0  0
    2.4010   -0.2292   12.7039 C   0  0  0  0  0  0  0  0  0  0  0  0
   -2.5774   -2.8426    8.7526 H   0  0  0  0  0  0  0  0  0  0  0  0
   -4.1574   -3.5019    7.2178 H   0  0  0  0  0  0  0  0  0  0  0  0
   -6.4859   -3.1281    6.5499 H   0  0  0  0  0  0  0  0  0  0  0  0
   -7.6198   -0.9918    7.1262 H   0  0  0  0  0  0  0  0  0  0  0  0
   -6.3736    0.7089    8.4273 H   0  0  0  0  0  0  0  0  0  0  0  0
   -2.2450    1.2701    8.9867 H   0  0  0  0  0  0  0  0  0  0  0  0
   -2.2468    0.0430    8.0360 H   0  0  0  0  0  0  0  0  0  0  0  0
    1.4656   -1.2434   13.9551 H   0  0  0  0  0  0  0  0  0  0  0  0
    0.6266   -2.4425   13.9362 H   0  0  0  0  0  0  0  0  0  0  0  0
    2.2417   -4.4003   12.6498 H   0  0  0  0  0  0  0  0  0  0  0  0
    3.2692   -3.8859   13.8285 H   0  0  0  0  0  0  0  0  0  0  0  0
    4.5734   -3.6438   11.8220 H   0  0  0  0  0  0  0  0  0  0  0  0
    3.1708   -3.2828   10.7945 H   0  0  0  0  0  0  0  0  0  0  0  0
    4.5144   -0.3463   11.0024 H   0  0  0  0  0  0  0  0  0  0  0  0
    7.2094   -0.6798   10.9003 H   0  0  0  0  0  0  0  0  0  0  0  0
    8.8124   -0.0119   13.1618 H   0  0  0  0  0  0  0  0  0  0  0  0
    6.1096   -2.6633   14.2356 H   0  0  0  0  0  0  0  0  0  0  0  0
    2.7966    0.5836   12.0354 H   0  0  0  0  0  0  0  0  0  0  0  0
    2.1987    0.7202   13.2421 H   0  0  0  0  0  0  0  0  0  0  0  0
  1  2  2  0
  2  3  1  0
  3  4  2  0
  4  5  1  0
  5  6  2  0
  6  7  1  0
  7  8  2  0
  8  9  1  0
  9 10  2  0
 10 11  1  0
 11 12  1  0
  2 13  1  0
 13 14  1  0
 14 15  1  0
 15 16  1  0
 16 17  1  0
 17 18  1  0
 18 19  2  0
 19 20  1  0
 20 21  2  0
 21 22  1  0
 17 23  1  0
 12  3  1  0
 23 13  1  0
 10  5  1  0
 22 18  1  0
  4 24  1  0
  6 25  1  0
  7 26  1  0
  8 27  1  0
  9 28  1  0
 12 29  1  0
 12 30  1  0
 14 31  1  0
 14 32  1  0
 15 33  1  0
 15 34  1  0
 16 35  1  0
 16 36  1  0
 17 37  1  0
 19 38  1  0
 20 39  1  0
 22 40  1  0
 23 41  1  0
 23 42  1  0
M  END
>  <Energy>  (321) 
894.39614791576616

>  <compound_id>  (321) 
9291

>  <target_id>  (321) 
1

>  <reference_id>  (321) 
81

>  <inspiration_ids>  (321) 
[91, 81]

>  <energy_score>  (321) 
816.6589412577221

>  <distance_score>  (321) 
5.013799297999767

>  <path>  (321) 
/opt/xchem-fragalysis-2/maxwin/BulkDock/SCRATCH/511014/C9291-P81/C9291-P81.minimised.mol

>  <scratch_subdir>  (321) 
/opt/xchem-fragalysis-2/maxwin/BulkDock/SCRATCH/511014/C9291-P81

>  <fragmenstein_runtime>  (321) 
10.16026759147644

>  <fragmenstein_outcome>  (321) 
too moved

>  <fragmenstein_mode>  (321) 
expansion

>  <fragmenstein_error>  (321) 


$$$$
C9292-P81
     RDKit          3D

 38 40  0  0  0  0  0  0  0  0999 V2000
   -1.4718   -1.6398    8.3025 O   0  0  0  0  0  0  0  0  0  0  0  0
   -1.4321   -0.8044    9.2520 C   0  0  0  0  0  0  0  0  0  0  0  0
    0.3216   -0.8994   10.1813 O   0  0  0  0  0  0  0  0  0  0  0  0
    2.0522   -0.7879   11.2567 C   0  0  0  0  0  0  0  0  0  0  0  0
    4.2178   -0.3618   11.3562 C   0  0  0  0  0  0  0  0  0  0  0  0
    5.6899   -1.4077   12.3229 N   0  0  0  0  0  0  0  0  0  0  0  0
    7.0342   -1.0675   12.7110 C   0  0  0  0  0  0  0  0  0  0  0  0
    7.6865   -0.1110   12.4934 O   0  0  0  0  0  0  0  0  0  0  0  0
    7.6352   -2.1530   13.7058 C   0  0  0  0  0  0  0  0  0  0  0  0
    8.8392   -2.1953   14.5521 C   0  0  0  0  0  0  0  0  0  0  0  0
    8.6749   -1.1343   15.4120 C   0  0  0  0  0  0  0  0  0  0  0  0
    7.3837   -1.1646   15.7016 N   0  0  0  0  0  0  0  0  0  0  0  0
    6.9384   -2.1921   14.8948 N   0  0  0  0  0  0  0  0  0  0  0  0
   -2.8305    0.0486    9.2540 C   0  0  0  0  0  0  0  0  0  0  0  0
   -3.7294   -0.8506    8.7056 C   0  0  0  0  0  0  0  0  0  0  0  0
   -5.0147   -0.6257    8.0569 C   0  0  0  0  0  0  0  0  0  0  0  0
   -5.7894   -1.6563    7.5194 C   0  0  0  0  0  0  0  0  0  0  0  0
   -6.9945   -1.3920    6.8766 C   0  0  0  0  0  0  0  0  0  0  0  0
   -7.8826   -2.6987    6.2036 Cl  0  0  0  0  0  0  0  0  0  0  0  0
   -7.4288   -0.0823    6.7318 C   0  0  0  0  0  0  0  0  0  0  0  0
   -6.6219    0.9542    7.1973 C   0  0  0  0  0  0  0  0  0  0  0  0
   -5.4153    0.6598    7.8325 C   0  0  0  0  0  0  0  0  0  0  0  0
   -4.5831    1.6853    8.1271 O   0  0  0  0  0  0  0  0  0  0  0  0
   -3.3038    1.4304    8.9317 C   0  0  0  0  0  0  0  0  0  0  0  0
    1.6212   -0.6602   12.2693 H   0  0  0  0  0  0  0  0  0  0  0  0
    2.0494   -1.7769   10.7869 H   0  0  0  0  0  0  0  0  0  0  0  0
    4.5498    0.2264   10.5155 H   0  0  0  0  0  0  0  0  0  0  0  0
    4.1350   -1.4723   11.4992 H   0  0  0  0  0  0  0  0  0  0  0  0
    5.4932   -2.3585   12.6102 H   0  0  0  0  0  0  0  0  0  0  0  0
    9.8164   -2.5975   14.3055 H   0  0  0  0  0  0  0  0  0  0  0  0
    9.3732   -0.4857   15.9186 H   0  0  0  0  0  0  0  0  0  0  0  0
    5.9842   -2.5089   14.9843 H   0  0  0  0  0  0  0  0  0  0  0  0
   -3.4706   -1.8998    8.6227 H   0  0  0  0  0  0  0  0  0  0  0  0
   -5.4219   -2.6773    7.5177 H   0  0  0  0  0  0  0  0  0  0  0  0
   -8.3637    0.1381    6.2247 H   0  0  0  0  0  0  0  0  0  0  0  0
   -6.9211    1.9871    7.0421 H   0  0  0  0  0  0  0  0  0  0  0  0
   -3.4367    2.3054    9.5296 H   0  0  0  0  0  0  0  0  0  0  0  0
   -2.4029    1.9418    8.5761 H   0  0  0  0  0  0  0  0  0  0  0  0
  1  2  2  0
  2  3  1  0
  3  4  1  0
  4  5  1  0
  5  6  1  0
  6  7  1  0
  7  8  2  0
  7  9  1  0
  9 10  2  0
 10 11  1  0
 11 12  2  0
 12 13  1  0
  2 14  1  0
 14 15  2  0
 15 16  1  0
 16 17  2  0
 17 18  1  0
 18 19  1  0
 18 20  2  0
 20 21  1  0
 21 22  2  0
 22 23  1  0
 23 24  1  0
 13  9  1  0
 24 14  1  0
 22 16  1  0
  4 25  1  0
  4 26  1  0
  5 27  1  0
  5 28  1  0
  6 29  1  0
 10 30  1  0
 11 31  1  0
 13 32  1  0
 15 33  1  0
 17 34  1  0
 20 35  1  0
 21 36  1  0
 24 37  1  0
 24 38  1  0
M  END
>  <Energy>  (322) 
778.88527462993056

>  <compound_id>  (322) 
9292

>  <target_id>  (322) 
1

>  <reference_id>  (322) 
81

>  <inspiration_ids>  (322) 
[91, 81]

>  <energy_score>  (322) 
771.5096537685594

>  <distance_score>  (322) 
4.102347112922485

>  <path>  (322) 
/opt/xchem-fragalysis-2/maxwin/BulkDock/SCRATCH/511014/C9292-P81/C9292-P81.minimised.mol

>  <scratch_subdir>  (322) 
/opt/xchem-fragalysis-2/maxwin/BulkDock/SCRATCH/511014/C9292-P81

>  <fragmenstein_runtime>  (322) 
8.190640449523926

>  <fragmenstein_outcome>  (322) 
too moved

>  <fragmenstein_mode>  (322) 
expansion

>  <fragmenstein_error>  (322) 


$$$$
C9289-P81
     RDKit          3D

 41 44  0  0  0  0  0  0  0  0999 V2000
   -2.4870   -1.6423    8.4940 C   0  0  0  0  0  0  0  0  0  0  0  0
   -1.5934   -0.8143    9.2874 C   0  0  0  0  0  0  0  0  0  0  0  0
    0.2535   -1.0876   10.3742 C   0  0  0  0  0  0  0  0  0  0  0  0
    1.4690   -0.7917   11.8913 N   0  0  0  0  0  0  0  0  0  0  0  0
    1.3089   -1.5690   13.4104 C   0  0  0  0  0  0  0  0  0  0  0  0
    2.2261   -3.3152   13.5095 C   0  0  0  0  0  0  0  0  0  0  0  0
    3.3385   -3.4593   12.6487 O   0  0  0  0  0  0  0  0  0  0  0  0
    3.3401   -2.5030   11.4940 C   0  0  0  0  0  0  0  0  0  0  0  0
    3.2637   -0.4011   11.6431 C   0  0  0  0  0  0  0  0  0  0  0  0
    5.2565   -0.7335   11.7181 C   0  0  0  0  0  0  0  0  0  0  0  0
    6.0986   -1.1045   12.8558 C   0  0  0  0  0  0  0  0  0  0  0  0
    7.2255   -1.6290   12.5551 C   0  0  0  0  0  0  0  0  0  0  0  0
    7.4526   -1.3170   11.3289 N   0  0  0  0  0  0  0  0  0  0  0  0
    6.4284   -0.6619   10.8937 N   0  0  0  0  0  0  0  0  0  0  0  0
   -2.7814    0.3859    9.1234 C   0  0  0  0  0  0  0  0  0  0  0  0
   -4.0532    0.6062    8.4571 O   0  0  0  0  0  0  0  0  0  0  0  0
   -4.6652   -0.4681    7.9941 C   0  0  0  0  0  0  0  0  0  0  0  0
   -6.0093   -0.3569    7.6146 C   0  0  0  0  0  0  0  0  0  0  0  0
   -6.6753   -1.4603    7.1090 C   0  0  0  0  0  0  0  0  0  0  0  0
   -5.9689   -2.6416    6.9655 C   0  0  0  0  0  0  0  0  0  0  0  0
   -4.6070   -2.6881    7.3412 C   0  0  0  0  0  0  0  0  0  0  0  0
   -3.9153   -1.5910    7.8972 C   0  0  0  0  0  0  0  0  0  0  0  0
   -2.3985   -2.6739    8.3456 H   0  0  0  0  0  0  0  0  0  0  0  0
    1.0809   -0.6181    9.8656 H   0  0  0  0  0  0  0  0  0  0  0  0
   -0.2208   -0.8407   11.3316 H   0  0  0  0  0  0  0  0  0  0  0  0
    0.3399   -1.8823   13.7556 H   0  0  0  0  0  0  0  0  0  0  0  0
    1.3395   -0.7072   14.0471 H   0  0  0  0  0  0  0  0  0  0  0  0
    2.3090   -3.8458   14.4413 H   0  0  0  0  0  0  0  0  0  0  0  0
    1.7428   -4.2359   13.1694 H   0  0  0  0  0  0  0  0  0  0  0  0
    4.1414   -3.0593   11.1509 H   0  0  0  0  0  0  0  0  0  0  0  0
    2.6850   -2.8654   10.7174 H   0  0  0  0  0  0  0  0  0  0  0  0
    3.0827    0.4365   12.3693 H   0  0  0  0  0  0  0  0  0  0  0  0
    5.9594   -1.2839   13.9067 H   0  0  0  0  0  0  0  0  0  0  0  0
    7.7643   -2.1970   13.3027 H   0  0  0  0  0  0  0  0  0  0  0  0
    6.5493    0.0278   10.1757 H   0  0  0  0  0  0  0  0  0  0  0  0
   -3.3906    0.1832    9.9636 H   0  0  0  0  0  0  0  0  0  0  0  0
   -2.3598    1.3399    8.9080 H   0  0  0  0  0  0  0  0  0  0  0  0
   -6.5310    0.5882    7.7325 H   0  0  0  0  0  0  0  0  0  0  0  0
   -7.7236   -1.4013    6.8326 H   0  0  0  0  0  0  0  0  0  0  0  0
   -6.4605   -3.5332    6.5838 H   0  0  0  0  0  0  0  0  0  0  0  0
   -4.1105   -3.6520    7.2864 H   0  0  0  0  0  0  0  0  0  0  0  0
  1  2  2  0
  2  3  1  0
  3  4  1  0
  4  5  1  0
  5  6  1  0
  6  7  1  0
  7  8  1  0
  8  9  1  0
  9 10  1  0
 10 11  2  0
 11 12  1  0
 12 13  2  0
 13 14  1  0
  2 15  1  0
 15 16  1  0
 16 17  1  0
 17 18  2  0
 18 19  1  0
 19 20  2  0
 20 21  1  0
 21 22  2  0
 22  1  1  0
  9  4  1  0
 14 10  1  0
 22 17  1  0
  1 23  1  0
  3 24  1  0
  3 25  1  0
  5 26  1  0
  5 27  1  0
  6 28  1  0
  6 29  1  0
  8 30  1  0
  8 31  1  0
  9 32  1  0
 11 33  1  0
 12 34  1  0
 14 35  1  0
 15 36  1  0
 15 37  1  0
 18 38  1  0
 19 39  1  0
 20 40  1  0
 21 41  1  0
M  END
>  <Energy>  (323) 
931.21773604131124

>  <compound_id>  (323) 
9289

>  <target_id>  (323) 
1

>  <reference_id>  (323) 
81

>  <inspiration_ids>  (323) 
[91, 81]

>  <energy_score>  (323) 
802.9820977025718

>  <distance_score>  (323) 
5.432574524855813

>  <path>  (323) 
/opt/xchem-fragalysis-2/maxwin/BulkDock/SCRATCH/511014/C9289-P81/C9289-P81.minimised.mol

>  <scratch_subdir>  (323) 
/opt/xchem-fragalysis-2/maxwin/BulkDock/SCRATCH/511014/C9289-P81

>  <fragmenstein_runtime>  (323) 
11.896884679794312

>  <fragmenstein_outcome>  (323) 
too moved

>  <fragmenstein_mode>  (323) 
expansion

>  <fragmenstein_error>  (323) 


$$$$
C9292-P81
     RDKit          3D

 38 40  0  0  0  0  0  0  0  0999 V2000
   -1.4718   -1.6398    8.3025 O   0  0  0  0  0  0  0  0  0  0  0  0
   -1.4321   -0.8044    9.2520 C   0  0  0  0  0  0  0  0  0  0  0  0
    0.3216   -0.8994   10.1813 O   0  0  0  0  0  0  0  0  0  0  0  0
    2.0522   -0.7879   11.2567 C   0  0  0  0  0  0  0  0  0  0  0  0
    4.2178   -0.3618   11.3562 C   0  0  0  0  0  0  0  0  0  0  0  0
    5.6899   -1.4077   12.3229 N   0  0  0  0  0  0  0  0  0  0  0  0
    7.0342   -1.0675   12.7110 C   0  0  0  0  0  0  0  0  0  0  0  0
    7.6865   -0.1110   12.4934 O   0  0  0  0  0  0  0  0  0  0  0  0
    7.6352   -2.1530   13.7058 C   0  0  0  0  0  0  0  0  0  0  0  0
    8.8392   -2.1953   14.5521 C   0  0  0  0  0  0  0  0  0  0  0  0
    8.6749   -1.1343   15.4120 C   0  0  0  0  0  0  0  0  0  0  0  0
    7.3837   -1.1646   15.7016 N   0  0  0  0  0  0  0  0  0  0  0  0
    6.9384   -2.1921   14.8948 N   0  0  0  0  0  0  0  0  0  0  0  0
   -2.8305    0.0486    9.2540 C   0  0  0  0  0  0  0  0  0  0  0  0
   -3.7294   -0.8506    8.7056 C   0  0  0  0  0  0  0  0  0  0  0  0
   -5.0147   -0.6257    8.0569 C   0  0  0  0  0  0  0  0  0  0  0  0
   -5.7894   -1.6563    7.5194 C   0  0  0  0  0  0  0  0  0  0  0  0
   -6.9945   -1.3920    6.8766 C   0  0  0  0  0  0  0  0  0  0  0  0
   -7.8826   -2.6987    6.2036 Cl  0  0  0  0  0  0  0  0  0  0  0  0
   -7.4288   -0.0823    6.7318 C   0  0  0  0  0  0  0  0  0  0  0  0
   -6.6219    0.9542    7.1973 C   0  0  0  0  0  0  0  0  0  0  0  0
   -5.4153    0.6598    7.8325 C   0  0  0  0  0  0  0  0  0  0  0  0
   -4.5831    1.6853    8.1271 O   0  0  0  0  0  0  0  0  0  0  0  0
   -3.3038    1.4304    8.9317 C   0  0  0  0  0  0  0  0  0  0  0  0
    1.6212   -0.6602   12.2693 H   0  0  0  0  0  0  0  0  0  0  0  0
    2.0494   -1.7769   10.7869 H   0  0  0  0  0  0  0  0  0  0  0  0
    4.5498    0.2264   10.5155 H   0  0  0  0  0  0  0  0  0  0  0  0
    4.1350   -1.4723   11.4992 H   0  0  0  0  0  0  0  0  0  0  0  0
    5.4932   -2.3585   12.6102 H   0  0  0  0  0  0  0  0  0  0  0  0
    9.8164   -2.5975   14.3055 H   0  0  0  0  0  0  0  0  0  0  0  0
    9.3732   -0.4857   15.9186 H   0  0  0  0  0  0  0  0  0  0  0  0
    5.9842   -2.5089   14.9843 H   0  0  0  0  0  0  0  0  0  0  0  0
   -3.4706   -1.8998    8.6227 H   0  0  0  0  0  0  0  0  0  0  0  0
   -5.4219   -2.6773    7.5177 H   0  0  0  0  0  0  0  0  0  0  0  0
   -8.3637    0.1381    6.2247 H   0  0  0  0  0  0  0  0  0  0  0  0
   -6.9211    1.9871    7.0421 H   0  0  0  0  0  0  0  0  0  0  0  0
   -3.4367    2.3054    9.5296 H   0  0  0  0  0  0  0  0  0  0  0  0
   -2.4029    1.9418    8.5761 H   0  0  0  0  0  0  0  0  0  0  0  0
  1  2  2  0
  2  3  1  0
  3  4  1  0
  4  5  1  0
  5  6  1  0
  6  7  1  0
  7  8  2  0
  7  9  1  0
  9 10  2  0
 10 11  1  0
 11 12  2  0
 12 13  1  0
  2 14  1  0
 14 15  2  0
 15 16  1  0
 16 17  2  0
 17 18  1  0
 18 19  1  0
 18 20  2  0
 20 21  1  0
 21 22  2  0
 22 23  1  0
 23 24  1  0
 13  9  1  0
 24 14  1  0
 22 16  1  0
  4 25  1  0
  4 26  1  0
  5 27  1  0
  5 28  1  0
  6 29  1  0
 10 30  1  0
 11 31  1  0
 13 32  1  0
 15 33  1  0
 17 34  1  0
 20 35  1  0
 21 36  1  0
 24 37  1  0
 24 38  1  0
M  END
>  <Energy>  (324) 
778.88527462993056

>  <compound_id>  (324) 
9292

>  <target_id>  (324) 
1

>  <reference_id>  (324) 
81

>  <inspiration_ids>  (324) 
[91, 81]

>  <energy_score>  (324) 
771.5096537685594

>  <distance_score>  (324) 
4.102347112922485

>  <path>  (324) 
/opt/xchem-fragalysis-2/maxwin/BulkDock/SCRATCH/511014/C9292-P81/C9292-P81.minimised.mol

>  <scratch_subdir>  (324) 
/opt/xchem-fragalysis-2/maxwin/BulkDock/SCRATCH/511014/C9292-P81

>  <fragmenstein_runtime>  (324) 
8.3872709274292

>  <fragmenstein_outcome>  (324) 
too moved

>  <fragmenstein_mode>  (324) 
expansion

>  <fragmenstein_error>  (324) 


$$$$
C5917-P3
     RDKit          3D

 54 56  0  0  0  0  0  0  0  0999 V2000
  -15.7838  -27.6645   27.8011 O   0  0  0  0  0  0  0  0  0  0  0  0
  -15.1540  -27.9152   28.7900 C   0  0  0  0  0  0  0  0  0  0  0  0
  -14.1818  -29.0302   28.8318 C   0  0  0  0  0  0  0  0  0  0  0  0
  -13.0778  -28.9672   28.0623 C   0  0  0  0  0  0  0  0  0  0  0  0
  -11.9464  -29.9413   28.2507 C   0  0  0  0  0  0  0  0  0  0  0  0
  -10.6374  -29.1739   28.4366 C   0  0  0  0  0  0  0  0  0  0  0  0
  -10.3504  -28.2832   27.3161 N   0  0  0  0  0  0  0  0  0  0  0  0
  -11.4062  -27.2789   27.1785 C   0  0  0  0  0  0  0  0  0  0  0  0
  -12.7825  -27.9311   26.9895 C   0  0  0  0  0  0  0  0  0  0  0  0
  -15.0799  -27.2375   30.0346 N   0  0  0  0  0  0  0  0  0  0  0  0
  -15.8449  -26.0560   30.5535 C   0  0  0  0  0  0  0  0  0  0  0  0
  -15.7079  -24.8424   29.6410 C   0  0  0  0  0  0  0  0  0  0  0  0
  -14.3050  -25.0354   29.1491 C   0  0  0  0  0  0  0  0  0  0  0  0
  -13.4644  -23.9655   29.5102 O   0  0  0  0  0  0  0  0  0  0  0  0
  -12.3896  -23.6575   28.6421 C   0  0  0  0  0  0  0  0  0  0  0  0
  -11.0712  -23.6878   29.4146 C   0  0  0  0  0  0  0  0  0  0  0  0
  -10.8993  -23.0549   30.7337 N   0  0  0  0  0  0  0  0  0  0  0  0
  -10.9571  -21.5874   30.6493 C   0  0  0  0  0  0  0  0  0  0  0  0
  -10.7049  -20.8936   31.9922 C   0  0  0  0  0  0  0  0  0  0  0  0
   -9.4804  -21.3911   32.7389 C   0  0  0  0  0  0  0  0  0  0  0  0
   -9.2682  -22.8827   32.6346 C   0  0  0  0  0  0  0  0  0  0  0  0
   -9.5760  -23.4487   31.2627 C   0  0  0  0  0  0  0  0  0  0  0  0
  -13.9713  -26.2292   30.0133 C   0  0  0  0  0  0  0  0  0  0  0  0
  -14.3219  -29.7691   29.6108 H   0  0  0  0  0  0  0  0  0  0  0  0
  -11.8798  -30.5919   27.3697 H   0  0  0  0  0  0  0  0  0  0  0  0
  -12.1148  -30.5920   29.1165 H   0  0  0  0  0  0  0  0  0  0  0  0
   -9.8123  -29.8882   28.5248 H   0  0  0  0  0  0  0  0  0  0  0  0
  -10.6777  -28.5792   29.3552 H   0  0  0  0  0  0  0  0  0  0  0  0
   -9.4468  -27.8583   27.4921 H   0  0  0  0  0  0  0  0  0  0  0  0
  -11.1947  -26.6514   26.3064 H   0  0  0  0  0  0  0  0  0  0  0  0
  -11.4064  -26.6219   28.0536 H   0  0  0  0  0  0  0  0  0  0  0  0
  -13.5330  -27.1403   26.9365 H   0  0  0  0  0  0  0  0  0  0  0  0
  -12.8077  -28.4398   26.0164 H   0  0  0  0  0  0  0  0  0  0  0  0
  -16.8986  -26.3646   30.5550 H   0  0  0  0  0  0  0  0  0  0  0  0
  -15.6025  -25.8526   31.6092 H   0  0  0  0  0  0  0  0  0  0  0  0
  -16.4167  -24.9119   28.8081 H   0  0  0  0  0  0  0  0  0  0  0  0
  -15.8965  -23.9086   30.1763 H   0  0  0  0  0  0  0  0  0  0  0  0
  -14.2958  -25.2357   28.0730 H   0  0  0  0  0  0  0  0  0  0  0  0
  -12.3348  -24.3546   27.7982 H   0  0  0  0  0  0  0  0  0  0  0  0
  -12.5421  -22.6611   28.2176 H   0  0  0  0  0  0  0  0  0  0  0  0
  -10.3385  -23.2564   28.7331 H   0  0  0  0  0  0  0  0  0  0  0  0
  -10.8733  -24.7560   29.5616 H   0  0  0  0  0  0  0  0  0  0  0  0
  -10.2447  -21.2461   29.8966 H   0  0  0  0  0  0  0  0  0  0  0  0
  -11.9273  -21.2559   30.2787 H   0  0  0  0  0  0  0  0  0  0  0  0
  -10.6220  -19.8117   31.8328 H   0  0  0  0  0  0  0  0  0  0  0  0
  -11.5641  -21.0223   32.6470 H   0  0  0  0  0  0  0  0  0  0  0  0
   -8.5845  -20.8957   32.3692 H   0  0  0  0  0  0  0  0  0  0  0  0
   -9.5603  -21.1164   33.7921 H   0  0  0  0  0  0  0  0  0  0  0  0
   -8.2195  -23.0933   32.8648 H   0  0  0  0  0  0  0  0  0  0  0  0
   -9.8640  -23.3906   33.3931 H   0  0  0  0  0  0  0  0  0  0  0  0
   -9.5266  -24.5384   31.3398 H   0  0  0  0  0  0  0  0  0  0  0  0
   -8.7810  -23.1372   30.5777 H   0  0  0  0  0  0  0  0  0  0  0  0
  -13.0732  -26.7028   29.6041 H   0  0  0  0  0  0  0  0  0  0  0  0
  -13.6383  -25.9733   31.0361 H   0  0  0  0  0  0  0  0  0  0  0  0
  1  2  2  0
  2  3  1  0
  3  4  2  3
  4  5  1  0
  5  6  1  0
  6  7  1  0
  7  8  1  0
  8  9  1  0
  2 10  1  0
 10 11  1  0
 11 12  1  0
 12 13  1  0
 13 14  1  0
 14 15  1  0
 15 16  1  0
 16 17  1  0
 17 18  1  0
 18 19  1  0
 19 20  1  0
 20 21  1  0
 21 22  1  0
 13 23  1  0
  9  4  1  0
 23 10  1  0
 22 17  1  0
  3 24  1  0
  5 25  1  0
  5 26  1  0
  6 27  1  0
  6 28  1  0
  7 29  1  0
  8 30  1  0
  8 31  1  0
  9 32  1  0
  9 33  1  0
 11 34  1  0
 11 35  1  0
 12 36  1  0
 12 37  1  0
 13 38  1  0
 15 39  1  0
 15 40  1  0
 16 41  1  0
 16 42  1  0
 18 43  1  0
 18 44  1  0
 19 45  1  0
 19 46  1  0
 20 47  1  0
 20 48  1  0
 21 49  1  0
 21 50  1  0
 22 51  1  0
 22 52  1  0
 23 53  1  0
 23 54  1  0
M  END
>  <Energy>  (325) 
135.6427907207094

>  <compound_id>  (325) 
5917

>  <target_id>  (325) 
1

>  <reference_id>  (325) 
3

>  <inspiration_ids>  (325) 
[3, 46]

>  <energy_score>  (325) 
-9.51184052619277

>  <distance_score>  (325) 
5.319312587213995

>  <path>  (325) 
/opt/xchem-fragalysis-2/maxwin/BulkDock/SCRATCH/511014/C5917-P3/C5917-P3.minimised.mol

>  <scratch_subdir>  (325) 
/opt/xchem-fragalysis-2/maxwin/BulkDock/SCRATCH/511014/C5917-P3

>  <fragmenstein_runtime>  (325) 
16.209222316741943

>  <fragmenstein_outcome>  (325) 
too moved

>  <fragmenstein_mode>  (325) 
expansion

>  <fragmenstein_error>  (325) 


$$$$
C5917-P46
     RDKit          3D

 54 56  0  0  0  0  0  0  0  0999 V2000
  -15.1313  -21.0524   32.0120 O   0  0  0  0  0  0  0  0  0  0  0  0
  -15.4940  -21.7514   32.9155 C   0  0  0  0  0  0  0  0  0  0  0  0
  -14.5233  -22.6593   33.6188 C   0  0  0  0  0  0  0  0  0  0  0  0
  -13.1870  -22.7316   33.4170 C   0  0  0  0  0  0  0  0  0  0  0  0
  -12.3758  -23.8369   34.0363 C   0  0  0  0  0  0  0  0  0  0  0  0
  -11.2961  -24.4538   33.1290 C   0  0  0  0  0  0  0  0  0  0  0  0
  -10.4964  -23.4683   32.3969 N   0  0  0  0  0  0  0  0  0  0  0  0
  -11.3936  -22.6098   31.6301 C   0  0  0  0  0  0  0  0  0  0  0  0
  -12.3840  -21.8621   32.5062 C   0  0  0  0  0  0  0  0  0  0  0  0
  -16.7532  -21.8357   33.5679 N   0  0  0  0  0  0  0  0  0  0  0  0
  -18.0508  -21.1645   33.2685 C   0  0  0  0  0  0  0  0  0  0  0  0
  -17.8420  -19.6490   33.1885 C   0  0  0  0  0  0  0  0  0  0  0  0
  -16.8520  -19.4553   34.3056 C   0  0  0  0  0  0  0  0  0  0  0  0
  -15.6255  -18.9142   33.8073 O   0  0  0  0  0  0  0  0  0  0  0  0
  -14.4688  -19.0052   34.6518 C   0  0  0  0  0  0  0  0  0  0  0  0
  -14.6139  -18.2764   35.9863 C   0  0  0  0  0  0  0  0  0  0  0  0
  -13.3426  -18.1782   36.7235 N   0  0  0  0  0  0  0  0  0  0  0  0
  -13.5418  -17.7282   38.1044 C   0  0  0  0  0  0  0  0  0  0  0  0
  -13.3885  -16.2235   38.2722 C   0  0  0  0  0  0  0  0  0  0  0  0
  -11.9871  -15.7570   37.8835 C   0  0  0  0  0  0  0  0  0  0  0  0
  -11.3216  -16.6947   36.8863 C   0  0  0  0  0  0  0  0  0  0  0  0
  -12.3546  -17.3617   35.9833 C   0  0  0  0  0  0  0  0  0  0  0  0
  -16.7970  -20.9025   34.7421 C   0  0  0  0  0  0  0  0  0  0  0  0
  -14.9892  -23.3452   34.3165 H   0  0  0  0  0  0  0  0  0  0  0  0
  -13.0261  -24.6508   34.3483 H   0  0  0  0  0  0  0  0  0  0  0  0
  -11.9307  -23.4327   34.9399 H   0  0  0  0  0  0  0  0  0  0  0  0
  -11.7465  -25.1422   32.4077 H   0  0  0  0  0  0  0  0  0  0  0  0
  -10.6257  -25.0682   33.7410 H   0  0  0  0  0  0  0  0  0  0  0  0
   -9.9822  -22.8965   33.0595 H   0  0  0  0  0  0  0  0  0  0  0  0
  -10.8197  -21.8514   31.0917 H   0  0  0  0  0  0  0  0  0  0  0  0
  -11.9058  -23.2003   30.8618 H   0  0  0  0  0  0  0  0  0  0  0  0
  -11.8733  -21.0968   33.0980 H   0  0  0  0  0  0  0  0  0  0  0  0
  -13.0218  -21.3642   31.8028 H   0  0  0  0  0  0  0  0  0  0  0  0
  -18.3429  -21.5156   32.2700 H   0  0  0  0  0  0  0  0  0  0  0  0
  -18.8650  -21.4886   33.9365 H   0  0  0  0  0  0  0  0  0  0  0  0
  -18.7863  -19.1225   33.3564 H   0  0  0  0  0  0  0  0  0  0  0  0
  -17.4391  -19.3473   32.2155 H   0  0  0  0  0  0  0  0  0  0  0  0
  -17.2387  -18.7992   35.0914 H   0  0  0  0  0  0  0  0  0  0  0  0
  -14.1516  -20.0405   34.7775 H   0  0  0  0  0  0  0  0  0  0  0  0
  -13.6651  -18.5141   34.1082 H   0  0  0  0  0  0  0  0  0  0  0  0
  -15.0500  -17.2823   35.8209 H   0  0  0  0  0  0  0  0  0  0  0  0
  -15.3496  -18.8218   36.5889 H   0  0  0  0  0  0  0  0  0  0  0  0
  -14.5122  -18.0534   38.4987 H   0  0  0  0  0  0  0  0  0  0  0  0
  -12.7933  -18.2228   38.7367 H   0  0  0  0  0  0  0  0  0  0  0  0
  -14.1328  -15.7047   37.6547 H   0  0  0  0  0  0  0  0  0  0  0  0
  -13.5946  -15.9352   39.3095 H   0  0  0  0  0  0  0  0  0  0  0  0
  -12.0528  -14.7455   37.4649 H   0  0  0  0  0  0  0  0  0  0  0  0
  -11.3554  -15.6788   38.7766 H   0  0  0  0  0  0  0  0  0  0  0  0
  -10.5885  -16.1436   36.2865 H   0  0  0  0  0  0  0  0  0  0  0  0
  -10.7636  -17.4577   37.4364 H   0  0  0  0  0  0  0  0  0  0  0  0
  -12.8540  -16.5702   35.4078 H   0  0  0  0  0  0  0  0  0  0  0  0
  -11.8327  -18.0032   35.2663 H   0  0  0  0  0  0  0  0  0  0  0  0
  -17.5932  -21.1800   35.4558 H   0  0  0  0  0  0  0  0  0  0  0  0
  -15.8905  -21.0922   35.3027 H   0  0  0  0  0  0  0  0  0  0  0  0
  1  2  2  0
  2  3  1  0
  3  4  2  3
  4  5  1  0
  5  6  1  0
  6  7  1  0
  7  8  1  0
  8  9  1  0
  2 10  1  0
 10 11  1  0
 11 12  1  0
 12 13  1  0
 13 14  1  0
 14 15  1  0
 15 16  1  0
 16 17  1  0
 17 18  1  0
 18 19  1  0
 19 20  1  0
 20 21  1  0
 21 22  1  0
 13 23  1  0
  9  4  1  0
 23 10  1  0
 22 17  1  0
  3 24  1  0
  5 25  1  0
  5 26  1  0
  6 27  1  0
  6 28  1  0
  7 29  1  0
  8 30  1  0
  8 31  1  0
  9 32  1  0
  9 33  1  0
 11 34  1  0
 11 35  1  0
 12 36  1  0
 12 37  1  0
 13 38  1  0
 15 39  1  0
 15 40  1  0
 16 41  1  0
 16 42  1  0
 18 43  1  0
 18 44  1  0
 19 45  1  0
 19 46  1  0
 20 47  1  0
 20 48  1  0
 21 49  1  0
 21 50  1  0
 22 51  1  0
 22 52  1  0
 23 53  1  0
 23 54  1  0
M  END
>  <Energy>  (326) 
140.90900509368993

>  <compound_id>  (326) 
5917

>  <target_id>  (326) 
1

>  <reference_id>  (326) 
46

>  <inspiration_ids>  (326) 
[3, 46]

>  <energy_score>  (326) 
-4.24562615321048

>  <distance_score>  (326) 
5.492509994086225

>  <path>  (326) 
/opt/xchem-fragalysis-2/maxwin/BulkDock/SCRATCH/511014/C5917-P46/C5917-P46.minimised.mol

>  <scratch_subdir>  (326) 
/opt/xchem-fragalysis-2/maxwin/BulkDock/SCRATCH/511014/C5917-P46

>  <fragmenstein_runtime>  (326) 
14.814587116241455

>  <fragmenstein_outcome>  (326) 
too moved

>  <fragmenstein_mode>  (326) 
expansion

>  <fragmenstein_error>  (326) 


$$$$
C5919-P3
     RDKit          3D

 54 55  0  0  0  0  0  0  0  0999 V2000
  -12.4303  -23.4984   25.5994 C   0  0  0  0  0  0  0  0  0  0  0  0
  -12.1879  -22.4769   26.7144 C   0  0  0  0  0  0  0  0  0  0  0  0
  -12.6734  -21.1211   26.2576 C   0  0  0  0  0  0  0  0  0  0  0  0
  -10.4000  -22.5392   27.0157 S   0  0  0  0  0  0  0  0  0  0  0  0
   -9.7799  -21.5070   28.7548 C   0  0  0  0  0  0  0  0  0  0  0  0
  -10.5483  -20.1699   28.6700 C   0  0  0  0  0  0  0  0  0  0  0  0
   -9.3134  -22.7441   30.0919 C   0  0  0  0  0  0  0  0  0  0  0  0
   -8.1428  -22.8305   30.3458 O   0  0  0  0  0  0  0  0  0  0  0  0
  -10.4045  -23.4964   30.5681 N   0  0  0  0  0  0  0  0  0  0  0  0
  -10.4774  -24.5470   31.5991 C   0  0  0  0  0  0  0  0  0  0  0  0
  -11.7680  -25.3779   31.3613 C   0  0  0  0  0  0  0  0  0  0  0  0
  -12.1067  -24.8736   29.9802 C   0  0  0  0  0  0  0  0  0  0  0  0
  -12.8082  -23.5890   29.8107 O   0  0  0  0  0  0  0  0  0  0  0  0
  -12.0371  -22.2705   29.7828 C   0  0  0  0  0  0  0  0  0  0  0  0
  -11.6504  -21.4207   31.1568 C   0  0  0  0  0  0  0  0  0  0  0  0
  -10.5164  -20.5247   31.4769 N   0  0  0  0  0  0  0  0  0  0  0  0
   -9.7857  -20.9401   32.6985 C   0  0  0  0  0  0  0  0  0  0  0  0
  -10.6737  -21.0235   33.9205 C   0  0  0  0  0  0  0  0  0  0  0  0
  -11.6084  -19.8442   34.1389 C   0  0  0  0  0  0  0  0  0  0  0  0
  -11.8705  -18.9369   32.9479 C   0  0  0  0  0  0  0  0  0  0  0  0
  -10.9742  -19.1497   31.7342 C   0  0  0  0  0  0  0  0  0  0  0  0
  -10.6694  -24.6606   29.6926 C   0  0  0  0  0  0  0  0  0  0  0  0
  -13.4993  -23.5566   25.3624 H   0  0  0  0  0  0  0  0  0  0  0  0
  -12.1179  -24.5064   25.8980 H   0  0  0  0  0  0  0  0  0  0  0  0
  -11.9084  -23.2335   24.6719 H   0  0  0  0  0  0  0  0  0  0  0  0
  -12.7887  -22.8463   27.5366 H   0  0  0  0  0  0  0  0  0  0  0  0
  -12.6799  -20.3946   27.0664 H   0  0  0  0  0  0  0  0  0  0  0  0
  -12.0904  -20.7205   25.4238 H   0  0  0  0  0  0  0  0  0  0  0  0
  -13.6989  -21.2067   25.8867 H   0  0  0  0  0  0  0  0  0  0  0  0
   -8.7909  -21.1913   28.4346 H   0  0  0  0  0  0  0  0  0  0  0  0
  -10.6514  -19.8826   27.6276 H   0  0  0  0  0  0  0  0  0  0  0  0
  -11.5524  -20.0813   29.0555 H   0  0  0  0  0  0  0  0  0  0  0  0
  -10.0486  -19.3204   29.1169 H   0  0  0  0  0  0  0  0  0  0  0  0
  -10.3383  -24.0417   32.5510 H   0  0  0  0  0  0  0  0  0  0  0  0
   -9.5421  -25.1012   31.6088 H   0  0  0  0  0  0  0  0  0  0  0  0
  -12.5849  -25.3400   32.0674 H   0  0  0  0  0  0  0  0  0  0  0  0
  -11.5214  -26.4444   31.3220 H   0  0  0  0  0  0  0  0  0  0  0  0
  -12.6049  -25.6276   29.3653 H   0  0  0  0  0  0  0  0  0  0  0  0
  -12.5125  -21.5780   29.1094 H   0  0  0  0  0  0  0  0  0  0  0  0
  -11.3229  -22.5515   29.1004 H   0  0  0  0  0  0  0  0  0  0  0  0
  -12.5210  -20.7909   31.2830 H   0  0  0  0  0  0  0  0  0  0  0  0
  -11.6028  -22.1689   31.9270 H   0  0  0  0  0  0  0  0  0  0  0  0
   -8.9547  -20.2575   32.8920 H   0  0  0  0  0  0  0  0  0  0  0  0
   -9.3006  -21.9083   32.5514 H   0  0  0  0  0  0  0  0  0  0  0  0
  -10.1092  -21.2831   34.8152 H   0  0  0  0  0  0  0  0  0  0  0  0
  -11.2516  -21.9148   33.8088 H   0  0  0  0  0  0  0  0  0  0  0  0
  -11.2357  -19.2284   34.9488 H   0  0  0  0  0  0  0  0  0  0  0  0
  -12.5637  -20.1907   34.5396 H   0  0  0  0  0  0  0  0  0  0  0  0
  -12.9149  -19.0352   32.6436 H   0  0  0  0  0  0  0  0  0  0  0  0
  -11.7859  -17.8916   33.2712 H   0  0  0  0  0  0  0  0  0  0  0  0
  -11.4966  -18.8002   30.8468 H   0  0  0  0  0  0  0  0  0  0  0  0
  -10.1050  -18.4893   31.8062 H   0  0  0  0  0  0  0  0  0  0  0  0
  -10.0928  -25.5666   29.7769 H   0  0  0  0  0  0  0  0  0  0  0  0
  -10.7541  -24.3798   28.6516 H   0  0  0  0  0  0  0  0  0  0  0  0
  1  2  1  0
  2  3  1  0
  2  4  1  0
  4  5  1  0
  5  6  1  0
  5  7  1  0
  7  8  2  0
  7  9  1  0
  9 10  1  0
 10 11  1  0
 11 12  1  0
 12 13  1  0
 13 14  1  0
 14 15  1  0
 15 16  1  0
 16 17  1  0
 17 18  1  0
 18 19  1  0
 19 20  1  0
 20 21  1  0
 12 22  1  0
 22  9  1  0
 21 16  1  0
  1 23  1  0
  1 24  1  0
  1 25  1  0
  2 26  1  0
  3 27  1  0
  3 28  1  0
  3 29  1  0
  5 30  1  0
  6 31  1  0
  6 32  1  0
  6 33  1  0
 10 34  1  0
 10 35  1  0
 11 36  1  0
 11 37  1  0
 12 38  1  0
 14 39  1  0
 14 40  1  0
 15 41  1  0
 15 42  1  0
 17 43  1  0
 17 44  1  0
 18 45  1  0
 18 46  1  0
 19 47  1  0
 19 48  1  0
 20 49  1  0
 20 50  1  0
 21 51  1  0
 21 52  1  0
 22 53  1  0
 22 54  1  0
M  END
>  <Energy>  (327) 
373.33359080047126

>  <compound_id>  (327) 
5919

>  <target_id>  (327) 
1

>  <reference_id>  (327) 
3

>  <inspiration_ids>  (327) 
[3, 46]

>  <energy_score>  (327) 
253.7118424755114

>  <distance_score>  (327) 
3.8162711451656195

>  <path>  (327) 
/opt/xchem-fragalysis-2/maxwin/BulkDock/SCRATCH/511014/C5919-P3/C5919-P3.minimised.mol

>  <scratch_subdir>  (327) 
/opt/xchem-fragalysis-2/maxwin/BulkDock/SCRATCH/511014/C5919-P3

>  <fragmenstein_runtime>  (327) 
11.930770635604858

>  <fragmenstein_outcome>  (327) 
too moved

>  <fragmenstein_mode>  (327) 
expansion

>  <fragmenstein_error>  (327) 


$$$$
C5919-P46
     RDKit          3D

 54 55  0  0  0  0  0  0  0  0999 V2000
  -11.1944  -23.8572   29.6337 C   0  0  0  0  0  0  0  0  0  0  0  0
  -11.0992  -23.0292   30.9347 C   0  0  0  0  0  0  0  0  0  0  0  0
  -11.0156  -21.5422   30.6474 C   0  0  0  0  0  0  0  0  0  0  0  0
   -9.7634  -23.8687   32.3358 S   0  0  0  0  0  0  0  0  0  0  0  0
  -10.7969  -25.0660   33.3275 C   0  0  0  0  0  0  0  0  0  0  0  0
  -10.5118  -25.2722   34.7481 C   0  0  0  0  0  0  0  0  0  0  0  0
  -12.0880  -24.5174   32.9764 C   0  0  0  0  0  0  0  0  0  0  0  0
  -12.3229  -24.7452   31.8239 O   0  0  0  0  0  0  0  0  0  0  0  0
  -12.8225  -23.7305   33.9530 N   0  0  0  0  0  0  0  0  0  0  0  0
  -14.1958  -23.0287   33.8541 C   0  0  0  0  0  0  0  0  0  0  0  0
  -14.2845  -21.7814   32.9926 C   0  0  0  0  0  0  0  0  0  0  0  0
  -13.1688  -21.1035   33.6397 C   0  0  0  0  0  0  0  0  0  0  0  0
  -13.5640  -20.4679   34.8360 O   0  0  0  0  0  0  0  0  0  0  0  0
  -14.2218  -19.2208   34.7775 C   0  0  0  0  0  0  0  0  0  0  0  0
  -13.2010  -18.0841   34.8381 C   0  0  0  0  0  0  0  0  0  0  0  0
  -12.4565  -17.8764   36.0915 N   0  0  0  0  0  0  0  0  0  0  0  0
  -13.3155  -17.6839   37.2556 C   0  0  0  0  0  0  0  0  0  0  0  0
  -12.4689  -17.5275   38.5160 C   0  0  0  0  0  0  0  0  0  0  0  0
  -11.5171  -16.3470   38.3962 C   0  0  0  0  0  0  0  0  0  0  0  0
  -10.6841  -16.4427   37.1276 C   0  0  0  0  0  0  0  0  0  0  0  0
  -11.5442  -16.7305   35.9004 C   0  0  0  0  0  0  0  0  0  0  0  0
  -12.3487  -22.3232   33.9459 C   0  0  0  0  0  0  0  0  0  0  0  0
  -11.1072  -24.9329   29.8135 H   0  0  0  0  0  0  0  0  0  0  0  0
  -10.4360  -23.5920   28.8910 H   0  0  0  0  0  0  0  0  0  0  0  0
  -12.1630  -23.6757   29.1535 H   0  0  0  0  0  0  0  0  0  0  0  0
  -12.0713  -22.9392   31.3968 H   0  0  0  0  0  0  0  0  0  0  0  0
  -12.0279  -21.2058   30.4178 H   0  0  0  0  0  0  0  0  0  0  0  0
  -10.4773  -21.2993   29.7347 H   0  0  0  0  0  0  0  0  0  0  0  0
  -10.6437  -20.9892   31.5103 H   0  0  0  0  0  0  0  0  0  0  0  0
  -10.6816  -26.0241   32.8069 H   0  0  0  0  0  0  0  0  0  0  0  0
   -9.4454  -25.2001   34.9650 H   0  0  0  0  0  0  0  0  0  0  0  0
  -10.8769  -26.2760   34.9514 H   0  0  0  0  0  0  0  0  0  0  0  0
  -11.0739  -24.6405   35.4254 H   0  0  0  0  0  0  0  0  0  0  0  0
  -14.5867  -22.8829   34.8600 H   0  0  0  0  0  0  0  0  0  0  0  0
  -14.9799  -23.6438   33.4555 H   0  0  0  0  0  0  0  0  0  0  0  0
  -14.0857  -21.9583   31.9358 H   0  0  0  0  0  0  0  0  0  0  0  0
  -15.2553  -21.2897   33.0956 H   0  0  0  0  0  0  0  0  0  0  0  0
  -12.5301  -20.4558   33.0570 H   0  0  0  0  0  0  0  0  0  0  0  0
  -14.9269  -19.1535   35.6097 H   0  0  0  0  0  0  0  0  0  0  0  0
  -14.8411  -19.1691   33.8809 H   0  0  0  0  0  0  0  0  0  0  0  0
  -12.4438  -18.3329   34.1036 H   0  0  0  0  0  0  0  0  0  0  0  0
  -13.7020  -17.1539   34.5458 H   0  0  0  0  0  0  0  0  0  0  0  0
  -13.9647  -16.8083   37.1268 H   0  0  0  0  0  0  0  0  0  0  0  0
  -13.9651  -18.5493   37.4109 H   0  0  0  0  0  0  0  0  0  0  0  0
  -13.1218  -17.3875   39.3849 H   0  0  0  0  0  0  0  0  0  0  0  0
  -11.8922  -18.4409   38.6947 H   0  0  0  0  0  0  0  0  0  0  0  0
  -12.0961  -15.4152   38.3802 H   0  0  0  0  0  0  0  0  0  0  0  0
  -10.8620  -16.3002   39.2732 H   0  0  0  0  0  0  0  0  0  0  0  0
  -10.1363  -15.5048   36.9800 H   0  0  0  0  0  0  0  0  0  0  0  0
   -9.9275  -17.2199   37.2474 H   0  0  0  0  0  0  0  0  0  0  0  0
  -10.8675  -16.9208   35.0601 H   0  0  0  0  0  0  0  0  0  0  0  0
  -12.1173  -15.8264   35.6531 H   0  0  0  0  0  0  0  0  0  0  0  0
  -12.0209  -22.2118   34.9749 H   0  0  0  0  0  0  0  0  0  0  0  0
  -11.4425  -22.2425   33.3621 H   0  0  0  0  0  0  0  0  0  0  0  0
  1  2  1  0
  2  3  1  0
  2  4  1  0
  4  5  1  0
  5  6  1  0
  5  7  1  0
  7  8  2  0
  7  9  1  0
  9 10  1  0
 10 11  1  0
 11 12  1  0
 12 13  1  0
 13 14  1  0
 14 15  1  0
 15 16  1  0
 16 17  1  0
 17 18  1  0
 18 19  1  0
 19 20  1  0
 20 21  1  0
 12 22  1  0
 22  9  1  0
 21 16  1  0
  1 23  1  0
  1 24  1  0
  1 25  1  0
  2 26  1  0
  3 27  1  0
  3 28  1  0
  3 29  1  0
  5 30  1  0
  6 31  1  0
  6 32  1  0
  6 33  1  0
 10 34  1  0
 10 35  1  0
 11 36  1  0
 11 37  1  0
 12 38  1  0
 14 39  1  0
 14 40  1  0
 15 41  1  0
 15 42  1  0
 17 43  1  0
 17 44  1  0
 18 45  1  0
 18 46  1  0
 19 47  1  0
 19 48  1  0
 20 49  1  0
 20 50  1  0
 21 51  1  0
 21 52  1  0
 22 53  1  0
 22 54  1  0
M  END
>  <Energy>  (328) 
224.76443832066218

>  <compound_id>  (328) 
5919

>  <target_id>  (328) 
1

>  <reference_id>  (328) 
46

>  <inspiration_ids>  (328) 
[3, 46]

>  <energy_score>  (328) 
105.14268999570183

>  <distance_score>  (328) 
4.287259487565897

>  <path>  (328) 
/opt/xchem-fragalysis-2/maxwin/BulkDock/SCRATCH/511014/C5919-P46/C5919-P46.minimised.mol

>  <scratch_subdir>  (328) 
/opt/xchem-fragalysis-2/maxwin/BulkDock/SCRATCH/511014/C5919-P46

>  <fragmenstein_runtime>  (328) 
14.94933009147644

>  <fragmenstein_outcome>  (328) 
too moved

>  <fragmenstein_mode>  (328) 
expansion

>  <fragmenstein_error>  (328) 


$$$$
C5920-P3
     RDKit          3D

 52 53  0  0  0  0  0  0  0  0999 V2000
  -15.9034  -24.5469   30.8037 C   0  0  0  0  0  0  0  0  0  0  0  0
  -15.5646  -25.9699   31.2114 C   0  0  0  0  0  0  0  0  0  0  0  0
  -15.9098  -26.1472   32.6924 C   0  0  0  0  0  0  0  0  0  0  0  0
  -13.8638  -26.4737   30.8972 S   0  0  0  0  0  0  0  0  0  0  0  0
  -12.9756  -25.4050   31.2935 O   0  0  0  0  0  0  0  0  0  0  0  0
  -13.6987  -27.7529   31.5687 O   0  0  0  0  0  0  0  0  0  0  0  0
  -13.6470  -26.8758   29.1595 C   0  0  0  0  0  0  0  0  0  0  0  0
  -12.2055  -26.8626   28.7693 C   0  0  0  0  0  0  0  0  0  0  0  0
  -12.3274  -26.1015   27.4742 C   0  0  0  0  0  0  0  0  0  0  0  0
  -13.2716  -24.9311   27.5637 N   0  0  0  0  0  0  0  0  0  0  0  0
  -12.6622  -23.8601   28.2558 C   0  0  0  0  0  0  0  0  0  0  0  0
  -12.6647  -23.5895   29.4170 O   0  0  0  0  0  0  0  0  0  0  0  0
  -11.8423  -22.9793   27.3213 C   0  0  0  0  0  0  0  0  0  0  0  0
  -11.6610  -21.5375   27.8173 C   0  0  0  0  0  0  0  0  0  0  0  0
  -10.6616  -21.1984   28.9403 C   0  0  0  0  0  0  0  0  0  0  0  0
  -10.9737  -21.6223   30.3011 N   0  0  0  0  0  0  0  0  0  0  0  0
  -10.3002  -22.8373   30.7620 C   0  0  0  0  0  0  0  0  0  0  0  0
   -9.0282  -22.6248   31.5689 C   0  0  0  0  0  0  0  0  0  0  0  0
   -9.2004  -21.6313   32.7098 C   0  0  0  0  0  0  0  0  0  0  0  0
  -10.5542  -20.9403   32.6966 C   0  0  0  0  0  0  0  0  0  0  0  0
  -11.0492  -20.5535   31.3025 C   0  0  0  0  0  0  0  0  0  0  0  0
  -14.2080  -26.0085   28.0471 C   0  0  0  0  0  0  0  0  0  0  0  0
  -15.2923  -24.1787   29.9830 H   0  0  0  0  0  0  0  0  0  0  0  0
  -15.8317  -23.8522   31.6431 H   0  0  0  0  0  0  0  0  0  0  0  0
  -16.9490  -24.5017   30.4767 H   0  0  0  0  0  0  0  0  0  0  0  0
  -16.1720  -26.6707   30.6257 H   0  0  0  0  0  0  0  0  0  0  0  0
  -15.2951  -25.5095   33.3309 H   0  0  0  0  0  0  0  0  0  0  0  0
  -16.9601  -25.8955   32.8758 H   0  0  0  0  0  0  0  0  0  0  0  0
  -15.7623  -27.1827   33.0152 H   0  0  0  0  0  0  0  0  0  0  0  0
  -14.0809  -27.8787   29.0566 H   0  0  0  0  0  0  0  0  0  0  0  0
  -11.7932  -27.8641   28.6220 H   0  0  0  0  0  0  0  0  0  0  0  0
  -11.5548  -26.3324   29.4708 H   0  0  0  0  0  0  0  0  0  0  0  0
  -11.3359  -25.7122   27.2129 H   0  0  0  0  0  0  0  0  0  0  0  0
  -12.5888  -26.7400   26.6132 H   0  0  0  0  0  0  0  0  0  0  0  0
  -12.3567  -22.9446   26.3526 H   0  0  0  0  0  0  0  0  0  0  0  0
  -10.8676  -23.4394   27.1566 H   0  0  0  0  0  0  0  0  0  0  0  0
  -11.3451  -20.9603   26.9446 H   0  0  0  0  0  0  0  0  0  0  0  0
  -12.6248  -21.1050   28.0551 H   0  0  0  0  0  0  0  0  0  0  0  0
  -10.5898  -20.1026   28.9117 H   0  0  0  0  0  0  0  0  0  0  0  0
   -9.6710  -21.5465   28.6442 H   0  0  0  0  0  0  0  0  0  0  0  0
  -10.0904  -23.5062   29.9245 H   0  0  0  0  0  0  0  0  0  0  0  0
  -10.9913  -23.3989   31.3920 H   0  0  0  0  0  0  0  0  0  0  0  0
   -8.6905  -23.5870   31.9730 H   0  0  0  0  0  0  0  0  0  0  0  0
   -8.2305  -22.2931   30.9043 H   0  0  0  0  0  0  0  0  0  0  0  0
   -9.0731  -22.1447   33.6706 H   0  0  0  0  0  0  0  0  0  0  0  0
   -8.4016  -20.8873   32.6724 H   0  0  0  0  0  0  0  0  0  0  0  0
  -10.5377  -20.0560   33.3382 H   0  0  0  0  0  0  0  0  0  0  0  0
  -11.2606  -21.6190   33.1610 H   0  0  0  0  0  0  0  0  0  0  0  0
  -10.5080  -19.6537   30.9966 H   0  0  0  0  0  0  0  0  0  0  0  0
  -12.0895  -20.2279   31.3806 H   0  0  0  0  0  0  0  0  0  0  0  0
  -15.1061  -25.4888   28.3862 H   0  0  0  0  0  0  0  0  0  0  0  0
  -14.5603  -26.6013   27.1853 H   0  0  0  0  0  0  0  0  0  0  0  0
  1  2  1  0
  2  3  1  0
  2  4  1  0
  4  5  2  0
  4  6  2  0
  4  7  1  0
  7  8  1  0
  8  9  1  0
  9 10  1  0
 10 11  1  0
 11 12  2  0
 11 13  1  0
 13 14  1  0
 14 15  1  0
 15 16  1  0
 16 17  1  0
 17 18  1  0
 18 19  1  0
 19 20  1  0
 20 21  1  0
 10 22  1  0
 22  7  1  0
 21 16  1  0
  1 23  1  0
  1 24  1  0
  1 25  1  0
  2 26  1  0
  3 27  1  0
  3 28  1  0
  3 29  1  0
  7 30  1  0
  8 31  1  0
  8 32  1  0
  9 33  1  0
  9 34  1  0
 13 35  1  0
 13 36  1  0
 14 37  1  0
 14 38  1  0
 15 39  1  0
 15 40  1  0
 17 41  1  0
 17 42  1  0
 18 43  1  0
 18 44  1  0
 19 45  1  0
 19 46  1  0
 20 47  1  0
 20 48  1  0
 21 49  1  0
 21 50  1  0
 22 51  1  0
 22 52  1  0
M  END
>  <Energy>  (329) 
80.053488758205617

>  <compound_id>  (329) 
5920

>  <target_id>  (329) 
1

>  <reference_id>  (329) 
3

>  <inspiration_ids>  (329) 
[3, 46]

>  <energy_score>  (329) 
37.969754611587035

>  <distance_score>  (329) 
4.510022176387174

>  <path>  (329) 
/opt/xchem-fragalysis-2/maxwin/BulkDock/SCRATCH/511014/C5920-P3/C5920-P3.minimised.mol

>  <scratch_subdir>  (329) 
/opt/xchem-fragalysis-2/maxwin/BulkDock/SCRATCH/511014/C5920-P3

>  <fragmenstein_runtime>  (329) 
15.991594552993774

>  <fragmenstein_outcome>  (329) 
too moved

>  <fragmenstein_mode>  (329) 
expansion

>  <fragmenstein_error>  (329) 


$$$$
C5920-P46
     RDKit          3D

 52 53  0  0  0  0  0  0  0  0999 V2000
  -11.9401  -22.7226   31.7519 C   0  0  0  0  0  0  0  0  0  0  0  0
  -11.6520  -23.2438   33.1110 C   0  0  0  0  0  0  0  0  0  0  0  0
  -12.8289  -23.5636   33.9723 C   0  0  0  0  0  0  0  0  0  0  0  0
  -10.3249  -24.4326   33.2271 S   0  0  0  0  0  0  0  0  0  0  0  0
  -10.4339  -25.1152   34.5123 O   0  0  0  0  0  0  0  0  0  0  0  0
   -9.1619  -23.6160   32.9538 O   0  0  0  0  0  0  0  0  0  0  0  0
  -10.1796  -25.7038   32.0952 C   0  0  0  0  0  0  0  0  0  0  0  0
  -11.1348  -26.7940   32.2000 C   0  0  0  0  0  0  0  0  0  0  0  0
  -10.8076  -27.3496   30.8740 C   0  0  0  0  0  0  0  0  0  0  0  0
  -11.1434  -26.3539   29.8309 N   0  0  0  0  0  0  0  0  0  0  0  0
  -11.0178  -26.9277   28.5581 C   0  0  0  0  0  0  0  0  0  0  0  0
  -10.0836  -26.9730   27.8156 O   0  0  0  0  0  0  0  0  0  0  0  0
  -12.3002  -27.6549   28.1858 C   0  0  0  0  0  0  0  0  0  0  0  0
  -13.0082  -26.8618   27.0907 C   0  0  0  0  0  0  0  0  0  0  0  0
  -13.4913  -25.5893   27.7094 C   0  0  0  0  0  0  0  0  0  0  0  0
  -13.4693  -24.3066   27.0765 N   0  0  0  0  0  0  0  0  0  0  0  0
  -13.1727  -23.3248   28.1130 C   0  0  0  0  0  0  0  0  0  0  0  0
  -11.8082  -23.2712   28.6752 C   0  0  0  0  0  0  0  0  0  0  0  0
  -10.8754  -23.1735   27.5398 C   0  0  0  0  0  0  0  0  0  0  0  0
  -11.1539  -24.1639   26.4213 C   0  0  0  0  0  0  0  0  0  0  0  0
  -12.5810  -24.1687   25.9520 C   0  0  0  0  0  0  0  0  0  0  0  0
  -10.1750  -25.5067   30.6365 C   0  0  0  0  0  0  0  0  0  0  0  0
  -12.1784  -23.5564   31.1118 H   0  0  0  0  0  0  0  0  0  0  0  0
  -12.7720  -22.0125   31.7467 H   0  0  0  0  0  0  0  0  0  0  0  0
  -11.0678  -22.2020   31.3497 H   0  0  0  0  0  0  0  0  0  0  0  0
  -11.2429  -22.3530   33.5820 H   0  0  0  0  0  0  0  0  0  0  0  0
  -12.5459  -23.2996   34.9859 H   0  0  0  0  0  0  0  0  0  0  0  0
  -13.7265  -22.9936   33.7211 H   0  0  0  0  0  0  0  0  0  0  0  0
  -13.0322  -24.6252   33.9885 H   0  0  0  0  0  0  0  0  0  0  0  0
   -9.1548  -26.0258   32.2923 H   0  0  0  0  0  0  0  0  0  0  0  0
  -12.1322  -26.3965   32.2495 H   0  0  0  0  0  0  0  0  0  0  0  0
  -11.0162  -27.5168   33.0005 H   0  0  0  0  0  0  0  0  0  0  0  0
   -9.7983  -27.7650   30.7673 H   0  0  0  0  0  0  0  0  0  0  0  0
  -11.4845  -28.1983   30.7242 H   0  0  0  0  0  0  0  0  0  0  0  0
  -12.9605  -27.8241   29.0342 H   0  0  0  0  0  0  0  0  0  0  0  0
  -12.0094  -28.6596   27.8994 H   0  0  0  0  0  0  0  0  0  0  0  0
  -13.8834  -27.3987   26.7098 H   0  0  0  0  0  0  0  0  0  0  0  0
  -12.3216  -26.7029   26.2589 H   0  0  0  0  0  0  0  0  0  0  0  0
  -12.8542  -25.4507   28.5532 H   0  0  0  0  0  0  0  0  0  0  0  0
  -14.4868  -25.8059   28.0926 H   0  0  0  0  0  0  0  0  0  0  0  0
  -13.2297  -22.3608   27.6981 H   0  0  0  0  0  0  0  0  0  0  0  0
  -13.9137  -23.3621   28.8898 H   0  0  0  0  0  0  0  0  0  0  0  0
  -11.6404  -24.1510   29.2437 H   0  0  0  0  0  0  0  0  0  0  0  0
  -11.6877  -22.3836   29.2976 H   0  0  0  0  0  0  0  0  0  0  0  0
  -11.0642  -22.1624   27.1725 H   0  0  0  0  0  0  0  0  0  0  0  0
   -9.8634  -23.2660   27.9309 H   0  0  0  0  0  0  0  0  0  0  0  0
  -10.5465  -23.9877   25.5411 H   0  0  0  0  0  0  0  0  0  0  0  0
  -10.8994  -25.1451   26.7861 H   0  0  0  0  0  0  0  0  0  0  0  0
  -12.7879  -23.2544   25.3922 H   0  0  0  0  0  0  0  0  0  0  0  0
  -12.7602  -24.9688   25.2335 H   0  0  0  0  0  0  0  0  0  0  0  0
  -10.3624  -24.4637   30.4366 H   0  0  0  0  0  0  0  0  0  0  0  0
   -9.1919  -25.6200   30.1689 H   0  0  0  0  0  0  0  0  0  0  0  0
  1  2  1  0
  2  3  1  0
  2  4  1  0
  4  5  2  0
  4  6  2  0
  4  7  1  0
  7  8  1  0
  8  9  1  0
  9 10  1  0
 10 11  1  0
 11 12  2  0
 11 13  1  0
 13 14  1  0
 14 15  1  0
 15 16  1  0
 16 17  1  0
 17 18  1  0
 18 19  1  0
 19 20  1  0
 20 21  1  0
 10 22  1  0
 22  7  1  0
 21 16  1  0
  1 23  1  0
  1 24  1  0
  1 25  1  0
  2 26  1  0
  3 27  1  0
  3 28  1  0
  3 29  1  0
  7 30  1  0
  8 31  1  0
  8 32  1  0
  9 33  1  0
  9 34  1  0
 13 35  1  0
 13 36  1  0
 14 37  1  0
 14 38  1  0
 15 39  1  0
 15 40  1  0
 17 41  1  0
 17 42  1  0
 18 43  1  0
 18 44  1  0
 19 45  1  0
 19 46  1  0
 20 47  1  0
 20 48  1  0
 21 49  1  0
 21 50  1  0
 22 51  1  0
 22 52  1  0
M  END
>  <Energy>  (330) 
117.07357652918017

>  <compound_id>  (330) 
5920

>  <target_id>  (330) 
1

>  <reference_id>  (330) 
46

>  <inspiration_ids>  (330) 
[3, 46]

>  <energy_score>  (330) 
74.98984238256307

>  <distance_score>  (330) 
5.453895459773445

>  <path>  (330) 
/opt/xchem-fragalysis-2/maxwin/BulkDock/SCRATCH/511014/C5920-P46/C5920-P46.minimised.mol

>  <scratch_subdir>  (330) 
/opt/xchem-fragalysis-2/maxwin/BulkDock/SCRATCH/511014/C5920-P46

>  <fragmenstein_runtime>  (330) 
15.455363750457764

>  <fragmenstein_outcome>  (330) 
too moved

>  <fragmenstein_mode>  (330) 
expansion

>  <fragmenstein_error>  (330) 


$$$$
C5921-P3
     RDKit          3D

 53 54  0  0  0  0  0  0  0  0999 V2000
  -11.5906  -25.5523   31.4730 C   0  0  0  0  0  0  0  0  0  0  0  0
  -11.4075  -24.6084   30.2980 C   0  0  0  0  0  0  0  0  0  0  0  0
  -10.1573  -23.7289   30.3920 C   0  0  0  0  0  0  0  0  0  0  0  0
  -10.3076  -22.7406   31.4557 N   0  0  0  0  0  0  0  0  0  0  0  0
   -9.0482  -22.5323   32.1714 C   0  0  0  0  0  0  0  0  0  0  0  0
   -9.1790  -21.4971   33.2882 C   0  0  0  0  0  0  0  0  0  0  0  0
  -10.5510  -20.8440   33.3330 C   0  0  0  0  0  0  0  0  0  0  0  0
  -10.9593  -20.3665   31.9564 C   0  0  0  0  0  0  0  0  0  0  0  0
  -10.8485  -21.4789   30.9223 C   0  0  0  0  0  0  0  0  0  0  0  0
  -11.6659  -25.4256   29.0266 C   0  0  0  0  0  0  0  0  0  0  0  0
  -11.8847  -24.6210   27.8489 N   0  0  0  0  0  0  0  0  0  0  0  0
  -12.4364  -25.3458   26.7055 C   0  0  0  0  0  0  0  0  0  0  0  0
  -13.4702  -24.3918   26.1029 C   0  0  0  0  0  0  0  0  0  0  0  0
  -13.1949  -23.0641   26.7597 C   0  0  0  0  0  0  0  0  0  0  0  0
  -11.8782  -22.0768   26.0975 S   0  0  0  0  0  0  0  0  0  0  0  0
  -11.5704  -21.0984   27.1289 O   0  0  0  0  0  0  0  0  0  0  0  0
  -10.8633  -22.9638   25.5668 O   0  0  0  0  0  0  0  0  0  0  0  0
  -12.5582  -21.1445   24.7413 C   0  0  0  0  0  0  0  0  0  0  0  0
  -11.7550  -21.3341   23.4586 C   0  0  0  0  0  0  0  0  0  0  0  0
  -14.0263  -21.4411   24.5664 C   0  0  0  0  0  0  0  0  0  0  0  0
  -12.7746  -23.5117   28.1113 C   0  0  0  0  0  0  0  0  0  0  0  0
  -10.8736  -25.3843   32.2784 H   0  0  0  0  0  0  0  0  0  0  0  0
  -11.4696  -26.5924   31.1539 H   0  0  0  0  0  0  0  0  0  0  0  0
  -12.6126  -25.5426   31.8586 H   0  0  0  0  0  0  0  0  0  0  0  0
  -12.2179  -23.9163   30.3047 H   0  0  0  0  0  0  0  0  0  0  0  0
   -9.2953  -24.3750   30.5843 H   0  0  0  0  0  0  0  0  0  0  0  0
   -9.9852  -23.2137   29.4454 H   0  0  0  0  0  0  0  0  0  0  0  0
   -8.2556  -22.2315   31.4787 H   0  0  0  0  0  0  0  0  0  0  0  0
   -8.7237  -23.4797   32.6131 H   0  0  0  0  0  0  0  0  0  0  0  0
   -8.4321  -20.7169   33.1229 H   0  0  0  0  0  0  0  0  0  0  0  0
   -8.9630  -21.9604   34.2564 H   0  0  0  0  0  0  0  0  0  0  0  0
  -11.2526  -21.5728   33.7178 H   0  0  0  0  0  0  0  0  0  0  0  0
  -10.6104  -20.0126   34.0288 H   0  0  0  0  0  0  0  0  0  0  0  0
  -10.3283  -19.5203   31.6663 H   0  0  0  0  0  0  0  0  0  0  0  0
  -11.9808  -19.9751   31.9870 H   0  0  0  0  0  0  0  0  0  0  0  0
  -10.2883  -21.1403   30.0499 H   0  0  0  0  0  0  0  0  0  0  0  0
  -11.8413  -21.6401   30.5149 H   0  0  0  0  0  0  0  0  0  0  0  0
  -12.5647  -26.0368   29.2003 H   0  0  0  0  0  0  0  0  0  0  0  0
  -10.8591  -26.1379   28.8447 H   0  0  0  0  0  0  0  0  0  0  0  0
  -12.9253  -26.2890   26.9769 H   0  0  0  0  0  0  0  0  0  0  0  0
  -11.6335  -25.5827   26.0024 H   0  0  0  0  0  0  0  0  0  0  0  0
  -13.5041  -24.3635   25.0204 H   0  0  0  0  0  0  0  0  0  0  0  0
  -14.4676  -24.7333   26.4156 H   0  0  0  0  0  0  0  0  0  0  0  0
  -14.0917  -22.4713   26.8844 H   0  0  0  0  0  0  0  0  0  0  0  0
  -12.4530  -20.1023   25.0466 H   0  0  0  0  0  0  0  0  0  0  0  0
  -10.6771  -21.3820   23.6327 H   0  0  0  0  0  0  0  0  0  0  0  0
  -11.9053  -20.5064   22.7692 H   0  0  0  0  0  0  0  0  0  0  0  0
  -12.0509  -22.2447   22.9410 H   0  0  0  0  0  0  0  0  0  0  0  0
  -14.1805  -22.4395   24.1663 H   0  0  0  0  0  0  0  0  0  0  0  0
  -14.6017  -21.3612   25.4784 H   0  0  0  0  0  0  0  0  0  0  0  0
  -14.5072  -20.7080   23.9423 H   0  0  0  0  0  0  0  0  0  0  0  0
  -12.2817  -22.7200   28.6705 H   0  0  0  0  0  0  0  0  0  0  0  0
  -13.6569  -23.8691   28.6602 H   0  0  0  0  0  0  0  0  0  0  0  0
  1  2  1  0
  2  3  1  0
  3  4  1  0
  4  5  1  0
  5  6  1  0
  6  7  1  0
  7  8  1  0
  8  9  1  0
  2 10  1  0
 10 11  1  0
 11 12  1  0
 12 13  1  0
 13 14  1  0
 14 15  1  0
 15 16  2  0
 15 17  2  0
 15 18  1  0
 18 19  1  0
 18 20  1  0
 14 21  1  0
  9  4  1  0
 21 11  1  0
  1 22  1  0
  1 23  1  0
  1 24  1  0
  2 25  1  0
  3 26  1  0
  3 27  1  0
  5 28  1  0
  5 29  1  0
  6 30  1  0
  6 31  1  0
  7 32  1  0
  7 33  1  0
  8 34  1  0
  8 35  1  0
  9 36  1  0
  9 37  1  0
 10 38  1  0
 10 39  1  0
 12 40  1  0
 12 41  1  0
 13 42  1  0
 13 43  1  0
 14 44  1  0
 18 45  1  0
 19 46  1  0
 19 47  1  0
 19 48  1  0
 20 49  1  0
 20 50  1  0
 20 51  1  0
 21 52  1  0
 21 53  1  0
M  END
>  <Energy>  (331) 
54.94321433172049

>  <compound_id>  (331) 
5921

>  <target_id>  (331) 
1

>  <reference_id>  (331) 
3

>  <inspiration_ids>  (331) 
[3, 46]

>  <energy_score>  (331) 
-32.95251613338911

>  <distance_score>  (331) 
2.213187613303707

>  <path>  (331) 
/opt/xchem-fragalysis-2/maxwin/BulkDock/SCRATCH/511014/C5921-P3/C5921-P3.minimised.mol

>  <scratch_subdir>  (331) 
/opt/xchem-fragalysis-2/maxwin/BulkDock/SCRATCH/511014/C5921-P3

>  <fragmenstein_runtime>  (331) 
9.350205659866333

>  <fragmenstein_outcome>  (331) 
too moved

>  <fragmenstein_mode>  (331) 
expansion

>  <fragmenstein_error>  (331) 


$$$$
C5921-P46
     RDKit          3D

 53 54  0  0  0  0  0  0  0  0999 V2000
  -11.1150  -24.1879   30.7711 C   0  0  0  0  0  0  0  0  0  0  0  0
  -11.6600  -23.1930   29.7429 C   0  0  0  0  0  0  0  0  0  0  0  0
  -11.5934  -21.7539   30.2556 C   0  0  0  0  0  0  0  0  0  0  0  0
  -12.2320  -21.4138   31.5034 N   0  0  0  0  0  0  0  0  0  0  0  0
  -11.4627  -21.4483   32.7118 C   0  0  0  0  0  0  0  0  0  0  0  0
  -12.2870  -20.8051   33.8561 C   0  0  0  0  0  0  0  0  0  0  0  0
  -13.7258  -21.2572   33.9743 C   0  0  0  0  0  0  0  0  0  0  0  0
  -14.4594  -21.3643   32.6869 C   0  0  0  0  0  0  0  0  0  0  0  0
  -13.5135  -22.0112   31.7172 C   0  0  0  0  0  0  0  0  0  0  0  0
  -10.9849  -23.2392   28.3552 C   0  0  0  0  0  0  0  0  0  0  0  0
  -11.4404  -24.2054   27.3620 N   0  0  0  0  0  0  0  0  0  0  0  0
  -11.5168  -25.5892   27.7641 C   0  0  0  0  0  0  0  0  0  0  0  0
  -12.4246  -26.1812   26.7141 C   0  0  0  0  0  0  0  0  0  0  0  0
  -13.4971  -25.1290   26.5748 C   0  0  0  0  0  0  0  0  0  0  0  0
  -14.5745  -25.3906   25.1560 S   0  0  0  0  0  0  0  0  0  0  0  0
  -14.9645  -24.1054   24.6022 O   0  0  0  0  0  0  0  0  0  0  0  0
  -13.9538  -26.3772   24.2874 O   0  0  0  0  0  0  0  0  0  0  0  0
  -16.1070  -26.1865   25.6947 C   0  0  0  0  0  0  0  0  0  0  0  0
  -15.8941  -27.2819   26.7317 C   0  0  0  0  0  0  0  0  0  0  0  0
  -16.8563  -26.7503   24.4816 C   0  0  0  0  0  0  0  0  0  0  0  0
  -12.6814  -23.8484   26.6552 C   0  0  0  0  0  0  0  0  0  0  0  0
  -10.6988  -25.0829   30.3026 H   0  0  0  0  0  0  0  0  0  0  0  0
  -11.8802  -24.5229   31.4671 H   0  0  0  0  0  0  0  0  0  0  0  0
  -10.3241  -23.7811   31.4022 H   0  0  0  0  0  0  0  0  0  0  0  0
  -12.6970  -23.4354   29.5330 H   0  0  0  0  0  0  0  0  0  0  0  0
  -10.5905  -21.3417   30.2340 H   0  0  0  0  0  0  0  0  0  0  0  0
  -12.1174  -21.1625   29.4929 H   0  0  0  0  0  0  0  0  0  0  0  0
  -10.5700  -20.8590   32.4971 H   0  0  0  0  0  0  0  0  0  0  0  0
  -11.1658  -22.4638   32.9909 H   0  0  0  0  0  0  0  0  0  0  0  0
  -12.2233  -19.7154   33.7992 H   0  0  0  0  0  0  0  0  0  0  0  0
  -11.9126  -21.0572   34.8367 H   0  0  0  0  0  0  0  0  0  0  0  0
  -13.7248  -22.2810   34.3611 H   0  0  0  0  0  0  0  0  0  0  0  0
  -14.2795  -20.6123   34.6615 H   0  0  0  0  0  0  0  0  0  0  0  0
  -14.8765  -20.4128   32.3617 H   0  0  0  0  0  0  0  0  0  0  0  0
  -15.3388  -22.0070   32.8264 H   0  0  0  0  0  0  0  0  0  0  0  0
  -14.0516  -22.0788   30.7747 H   0  0  0  0  0  0  0  0  0  0  0  0
  -13.2231  -22.9397   32.1925 H   0  0  0  0  0  0  0  0  0  0  0  0
   -9.9153  -23.4074   28.4760 H   0  0  0  0  0  0  0  0  0  0  0  0
  -11.0651  -22.2514   27.8883 H   0  0  0  0  0  0  0  0  0  0  0  0
  -11.9933  -25.7194   28.7353 H   0  0  0  0  0  0  0  0  0  0  0  0
  -10.5464  -26.0877   27.7944 H   0  0  0  0  0  0  0  0  0  0  0  0
  -11.8793  -26.3446   25.7777 H   0  0  0  0  0  0  0  0  0  0  0  0
  -12.8465  -27.1239   27.0641 H   0  0  0  0  0  0  0  0  0  0  0  0
  -14.1168  -25.1835   27.4663 H   0  0  0  0  0  0  0  0  0  0  0  0
  -16.7480  -25.4011   26.0937 H   0  0  0  0  0  0  0  0  0  0  0  0
  -15.2420  -28.0731   26.3581 H   0  0  0  0  0  0  0  0  0  0  0  0
  -16.8499  -27.7411   27.0066 H   0  0  0  0  0  0  0  0  0  0  0  0
  -15.4456  -26.9023   27.6523 H   0  0  0  0  0  0  0  0  0  0  0  0
  -16.2995  -27.5588   23.9977 H   0  0  0  0  0  0  0  0  0  0  0  0
  -17.8321  -27.1475   24.7807 H   0  0  0  0  0  0  0  0  0  0  0  0
  -17.0291  -25.9710   23.7323 H   0  0  0  0  0  0  0  0  0  0  0  0
  -12.4462  -23.4350   25.6711 H   0  0  0  0  0  0  0  0  0  0  0  0
  -13.2205  -23.1329   27.2646 H   0  0  0  0  0  0  0  0  0  0  0  0
  1  2  1  0
  2  3  1  0
  3  4  1  0
  4  5  1  0
  5  6  1  0
  6  7  1  0
  7  8  1  0
  8  9  1  0
  2 10  1  0
 10 11  1  0
 11 12  1  0
 12 13  1  0
 13 14  1  0
 14 15  1  0
 15 16  2  0
 15 17  2  0
 15 18  1  0
 18 19  1  0
 18 20  1  0
 14 21  1  0
  9  4  1  0
 21 11  1  0
  1 22  1  0
  1 23  1  0
  1 24  1  0
  2 25  1  0
  3 26  1  0
  3 27  1  0
  5 28  1  0
  5 29  1  0
  6 30  1  0
  6 31  1  0
  7 32  1  0
  7 33  1  0
  8 34  1  0
  8 35  1  0
  9 36  1  0
  9 37  1  0
 10 38  1  0
 10 39  1  0
 12 40  1  0
 12 41  1  0
 13 42  1  0
 13 43  1  0
 14 44  1  0
 18 45  1  0
 19 46  1  0
 19 47  1  0
 19 48  1  0
 20 49  1  0
 20 50  1  0
 20 51  1  0
 21 52  1  0
 21 53  1  0
M  END
>  <Energy>  (332) 
50.073361237697775

>  <compound_id>  (332) 
5921

>  <target_id>  (332) 
1

>  <reference_id>  (332) 
46

>  <inspiration_ids>  (332) 
[3, 46]

>  <energy_score>  (332) 
-37.82236922741481

>  <distance_score>  (332) 
2.8445573894930063

>  <path>  (332) 
/opt/xchem-fragalysis-2/maxwin/BulkDock/SCRATCH/511014/C5921-P46/C5921-P46.minimised.mol

>  <scratch_subdir>  (332) 
/opt/xchem-fragalysis-2/maxwin/BulkDock/SCRATCH/511014/C5921-P46

>  <fragmenstein_runtime>  (332) 
13.219447612762451

>  <fragmenstein_outcome>  (332) 
too moved

>  <fragmenstein_mode>  (332) 
expansion

>  <fragmenstein_error>  (332) 


$$$$
C5923-P3
     RDKit          3D

 50 51  0  0  0  0  0  0  0  0999 V2000
  -11.0192  -22.6742   24.8743 C   0  0  0  0  0  0  0  0  0  0  0  0
  -12.4760  -22.3363   24.5558 C   0  0  0  0  0  0  0  0  0  0  0  0
  -12.7209  -20.8443   24.5630 C   0  0  0  0  0  0  0  0  0  0  0  0
  -13.7354  -23.2461   25.5010 S   0  0  0  0  0  0  0  0  0  0  0  0
  -13.5740  -24.6767   25.3226 O   0  0  0  0  0  0  0  0  0  0  0  0
  -15.0310  -22.6717   25.1658 O   0  0  0  0  0  0  0  0  0  0  0  0
  -13.4755  -22.9379   27.2080 C   0  0  0  0  0  0  0  0  0  0  0  0
  -12.3125  -22.1078   27.6102 C   0  0  0  0  0  0  0  0  0  0  0  0
  -11.4630  -23.2343   28.0876 C   0  0  0  0  0  0  0  0  0  0  0  0
  -12.2119  -23.9298   29.1734 N   0  0  0  0  0  0  0  0  0  0  0  0
  -11.3374  -24.8335   29.8790 C   0  0  0  0  0  0  0  0  0  0  0  0
  -11.1053  -25.9652   29.6885 O   0  0  0  0  0  0  0  0  0  0  0  0
  -10.7654  -23.9061   30.8206 N   0  0  0  0  0  0  0  0  0  0  0  0
   -9.6744  -24.0557   31.7434 C   0  0  0  0  0  0  0  0  0  0  0  0
   -9.2582  -22.8211   32.5604 C   0  0  0  0  0  0  0  0  0  0  0  0
   -8.1267  -22.7813   32.9590 O   0  0  0  0  0  0  0  0  0  0  0  0
  -10.3511  -21.9419   32.7955 N   0  0  0  0  0  0  0  0  0  0  0  0
  -10.3864  -20.8717   31.7393 C   0  0  0  0  0  0  0  0  0  0  0  0
  -11.6070  -20.0426   31.4106 C   0  0  0  0  0  0  0  0  0  0  0  0
  -11.9218  -19.1134   32.5477 C   0  0  0  0  0  0  0  0  0  0  0  0
  -11.6580  -19.8391   33.8288 C   0  0  0  0  0  0  0  0  0  0  0  0
  -10.4690  -20.7749   33.6849 C   0  0  0  0  0  0  0  0  0  0  0  0
  -13.1862  -24.1839   28.0381 C   0  0  0  0  0  0  0  0  0  0  0  0
  -10.6283  -22.1812   25.7479 H   0  0  0  0  0  0  0  0  0  0  0  0
  -10.3761  -22.3668   24.0444 H   0  0  0  0  0  0  0  0  0  0  0  0
  -10.8230  -23.7166   25.1177 H   0  0  0  0  0  0  0  0  0  0  0  0
  -12.6845  -22.6359   23.5260 H   0  0  0  0  0  0  0  0  0  0  0  0
  -12.5518  -20.3551   25.5187 H   0  0  0  0  0  0  0  0  0  0  0  0
  -12.0723  -20.3541   23.8309 H   0  0  0  0  0  0  0  0  0  0  0  0
  -13.7629  -20.6620   24.3082 H   0  0  0  0  0  0  0  0  0  0  0  0
  -14.4403  -22.5380   27.4844 H   0  0  0  0  0  0  0  0  0  0  0  0
  -12.4761  -21.4479   28.4591 H   0  0  0  0  0  0  0  0  0  0  0  0
  -11.8492  -21.4515   26.9013 H   0  0  0  0  0  0  0  0  0  0  0  0
  -10.5649  -22.7920   28.5375 H   0  0  0  0  0  0  0  0  0  0  0  0
  -11.0787  -23.9281   27.3255 H   0  0  0  0  0  0  0  0  0  0  0  0
  -11.2625  -23.0316   30.7658 H   0  0  0  0  0  0  0  0  0  0  0  0
   -9.9228  -24.8613   32.4385 H   0  0  0  0  0  0  0  0  0  0  0  0
   -8.8103  -24.3587   31.1476 H   0  0  0  0  0  0  0  0  0  0  0  0
  -10.1651  -21.4005   30.8032 H   0  0  0  0  0  0  0  0  0  0  0  0
   -9.5222  -20.2177   31.8447 H   0  0  0  0  0  0  0  0  0  0  0  0
  -12.4246  -20.7060   31.1796 H   0  0  0  0  0  0  0  0  0  0  0  0
  -11.4220  -19.4567   30.5024 H   0  0  0  0  0  0  0  0  0  0  0  0
  -11.2644  -18.2386   32.4879 H   0  0  0  0  0  0  0  0  0  0  0  0
  -12.9490  -18.7438   32.5171 H   0  0  0  0  0  0  0  0  0  0  0  0
  -12.5346  -20.3557   34.1951 H   0  0  0  0  0  0  0  0  0  0  0  0
  -11.4595  -19.1015   34.6069 H   0  0  0  0  0  0  0  0  0  0  0  0
  -10.4354  -21.2817   34.6613 H   0  0  0  0  0  0  0  0  0  0  0  0
   -9.5044  -20.2633   33.6755 H   0  0  0  0  0  0  0  0  0  0  0  0
  -14.1097  -24.5161   28.5314 H   0  0  0  0  0  0  0  0  0  0  0  0
  -12.8450  -25.0740   27.4887 H   0  0  0  0  0  0  0  0  0  0  0  0
  1  2  1  0
  2  3  1  0
  2  4  1  0
  4  5  2  0
  4  6  2  0
  4  7  1  0
  7  8  1  0
  8  9  1  0
  9 10  1  0
 10 11  1  0
 11 12  2  0
 11 13  1  0
 13 14  1  0
 14 15  1  0
 15 16  2  0
 15 17  1  0
 17 18  1  0
 18 19  1  0
 19 20  1  0
 20 21  1  0
 21 22  1  0
 10 23  1  0
 23  7  1  0
 22 17  1  0
  1 24  1  0
  1 25  1  0
  1 26  1  0
  2 27  1  0
  3 28  1  0
  3 29  1  0
  3 30  1  0
  7 31  1  0
  8 32  1  0
  8 33  1  0
  9 34  1  0
  9 35  1  0
 13 36  1  0
 14 37  1  0
 14 38  1  0
 18 39  1  0
 18 40  1  0
 19 41  1  0
 19 42  1  0
 20 43  1  0
 20 44  1  0
 21 45  1  0
 21 46  1  0
 22 47  1  0
 22 48  1  0
 23 49  1  0
 23 50  1  0
M  END
>  <Energy>  (333) 
101.67716100395062

>  <compound_id>  (333) 
5923

>  <target_id>  (333) 
1

>  <reference_id>  (333) 
3

>  <inspiration_ids>  (333) 
[3, 46]

>  <energy_score>  (333) 
122.08910804861608

>  <distance_score>  (333) 
2.2900780208066

>  <path>  (333) 
/opt/xchem-fragalysis-2/maxwin/BulkDock/SCRATCH/511014/C5923-P3/C5923-P3.minimised.mol

>  <scratch_subdir>  (333) 
/opt/xchem-fragalysis-2/maxwin/BulkDock/SCRATCH/511014/C5923-P3

>  <fragmenstein_runtime>  (333) 
12.494261741638184

>  <fragmenstein_outcome>  (333) 
too moved

>  <fragmenstein_mode>  (333) 
expansion

>  <fragmenstein_error>  (333) 


$$$$
C5923-P46
     RDKit          3D

 50 51  0  0  0  0  0  0  0  0999 V2000
  -12.4647  -27.7257   28.3133 C   0  0  0  0  0  0  0  0  0  0  0  0
  -11.5162  -26.8098   27.5373 C   0  0  0  0  0  0  0  0  0  0  0  0
  -10.3899  -26.3443   28.4486 C   0  0  0  0  0  0  0  0  0  0  0  0
  -12.3705  -25.5373   26.5413 S   0  0  0  0  0  0  0  0  0  0  0  0
  -13.7221  -26.0103   26.2936 O   0  0  0  0  0  0  0  0  0  0  0  0
  -11.5476  -25.2354   25.3891 O   0  0  0  0  0  0  0  0  0  0  0  0
  -12.5376  -24.0195   27.4273 C   0  0  0  0  0  0  0  0  0  0  0  0
  -11.4529  -23.0493   27.4683 C   0  0  0  0  0  0  0  0  0  0  0  0
  -11.3503  -22.7968   28.9555 C   0  0  0  0  0  0  0  0  0  0  0  0
  -12.4778  -23.1658   29.8704 N   0  0  0  0  0  0  0  0  0  0  0  0
  -11.9815  -23.2316   31.3151 C   0  0  0  0  0  0  0  0  0  0  0  0
  -11.5480  -24.1379   31.9247 O   0  0  0  0  0  0  0  0  0  0  0  0
  -12.2957  -21.8810   31.7361 N   0  0  0  0  0  0  0  0  0  0  0  0
  -12.2641  -21.2562   33.0679 C   0  0  0  0  0  0  0  0  0  0  0  0
  -13.6205  -20.8822   33.8434 C   0  0  0  0  0  0  0  0  0  0  0  0
  -14.4373  -21.7438   34.0454 O   0  0  0  0  0  0  0  0  0  0  0  0
  -13.6103  -19.4684   34.2424 N   0  0  0  0  0  0  0  0  0  0  0  0
  -12.9270  -19.3071   35.5756 C   0  0  0  0  0  0  0  0  0  0  0  0
  -12.2121  -17.9694   35.7959 C   0  0  0  0  0  0  0  0  0  0  0  0
  -13.2565  -16.9212   36.0861 C   0  0  0  0  0  0  0  0  0  0  0  0
  -14.3759  -17.1282   35.0984 C   0  0  0  0  0  0  0  0  0  0  0  0
  -14.6711  -18.6288   34.9309 C   0  0  0  0  0  0  0  0  0  0  0  0
  -12.6555  -24.2411   28.8726 C   0  0  0  0  0  0  0  0  0  0  0  0
  -13.5170  -27.6240   28.0425 H   0  0  0  0  0  0  0  0  0  0  0  0
  -12.3673  -27.5880   29.3887 H   0  0  0  0  0  0  0  0  0  0  0  0
  -12.1895  -28.7718   28.1742 H   0  0  0  0  0  0  0  0  0  0  0  0
  -11.0426  -27.3985   26.7458 H   0  0  0  0  0  0  0  0  0  0  0  0
  -10.1615  -25.2986   28.3104 H   0  0  0  0  0  0  0  0  0  0  0  0
   -9.4824  -26.9159   28.2620 H   0  0  0  0  0  0  0  0  0  0  0  0
  -10.5936  -26.4902   29.5151 H   0  0  0  0  0  0  0  0  0  0  0  0
  -13.4189  -23.5537   27.0114 H   0  0  0  0  0  0  0  0  0  0  0  0
  -11.6831  -22.1311   26.9371 H   0  0  0  0  0  0  0  0  0  0  0  0
  -10.5271  -23.4723   27.0852 H   0  0  0  0  0  0  0  0  0  0  0  0
  -11.0666  -21.7610   29.1689 H   0  0  0  0  0  0  0  0  0  0  0  0
  -10.5191  -23.4236   29.2801 H   0  0  0  0  0  0  0  0  0  0  0  0
  -12.7246  -21.3964   30.9790 H   0  0  0  0  0  0  0  0  0  0  0  0
  -11.7797  -21.9888   33.7169 H   0  0  0  0  0  0  0  0  0  0  0  0
  -11.6244  -20.3763   32.9954 H   0  0  0  0  0  0  0  0  0  0  0  0
  -12.1492  -20.0674   35.5581 H   0  0  0  0  0  0  0  0  0  0  0  0
  -13.4939  -19.5453   36.4719 H   0  0  0  0  0  0  0  0  0  0  0  0
  -11.6163  -17.6984   34.9223 H   0  0  0  0  0  0  0  0  0  0  0  0
  -11.5409  -18.0279   36.6576 H   0  0  0  0  0  0  0  0  0  0  0  0
  -12.8410  -15.9106   36.0201 H   0  0  0  0  0  0  0  0  0  0  0  0
  -13.6380  -17.0504   37.1065 H   0  0  0  0  0  0  0  0  0  0  0  0
  -14.0643  -16.6748   34.1544 H   0  0  0  0  0  0  0  0  0  0  0  0
  -15.2772  -16.6003   35.4283 H   0  0  0  0  0  0  0  0  0  0  0  0
  -15.4994  -18.6870   34.2090 H   0  0  0  0  0  0  0  0  0  0  0  0
  -15.1689  -19.0958   35.7967 H   0  0  0  0  0  0  0  0  0  0  0  0
  -13.7088  -24.5139   28.9232 H   0  0  0  0  0  0  0  0  0  0  0  0
  -12.1208  -25.0874   29.2828 H   0  0  0  0  0  0  0  0  0  0  0  0
  1  2  1  0
  2  3  1  0
  2  4  1  0
  4  5  2  0
  4  6  2  0
  4  7  1  0
  7  8  1  0
  8  9  1  0
  9 10  1  0
 10 11  1  0
 11 12  2  0
 11 13  1  0
 13 14  1  0
 14 15  1  0
 15 16  2  0
 15 17  1  0
 17 18  1  0
 18 19  1  0
 19 20  1  0
 20 21  1  0
 21 22  1  0
 10 23  1  0
 23  7  1  0
 22 17  1  0
  1 24  1  0
  1 25  1  0
  1 26  1  0
  2 27  1  0
  3 28  1  0
  3 29  1  0
  3 30  1  0
  7 31  1  0
  8 32  1  0
  8 33  1  0
  9 34  1  0
  9 35  1  0
 13 36  1  0
 14 37  1  0
 14 38  1  0
 18 39  1  0
 18 40  1  0
 19 41  1  0
 19 42  1  0
 20 43  1  0
 20 44  1  0
 21 45  1  0
 21 46  1  0
 22 47  1  0
 22 48  1  0
 23 49  1  0
 23 50  1  0
M  END
>  <Energy>  (334) 
109.33636618451699

>  <compound_id>  (334) 
5923

>  <target_id>  (334) 
1

>  <reference_id>  (334) 
46

>  <inspiration_ids>  (334) 
[3, 46]

>  <energy_score>  (334) 
129.74831322918237

>  <distance_score>  (334) 
4.223410395064837

>  <path>  (334) 
/opt/xchem-fragalysis-2/maxwin/BulkDock/SCRATCH/511014/C5923-P46/C5923-P46.minimised.mol

>  <scratch_subdir>  (334) 
/opt/xchem-fragalysis-2/maxwin/BulkDock/SCRATCH/511014/C5923-P46

>  <fragmenstein_runtime>  (334) 
19.748290300369263

>  <fragmenstein_outcome>  (334) 
too moved

>  <fragmenstein_mode>  (334) 
expansion

>  <fragmenstein_error>  (334) 


$$$$
C5925-P3
     RDKit          3D

 47 49  0  0  0  0  0  0  0  0999 V2000
  -10.5127  -20.9932   33.6331 C   0  0  0  0  0  0  0  0  0  0  0  0
   -9.7036  -21.9968   32.8604 C   0  0  0  0  0  0  0  0  0  0  0  0
   -8.2371  -21.9038   33.1384 C   0  0  0  0  0  0  0  0  0  0  0  0
   -9.8856  -21.6582   31.4846 O   0  0  0  0  0  0  0  0  0  0  0  0
  -10.4206  -22.6545   30.7399 C   0  0  0  0  0  0  0  0  0  0  0  0
  -10.8178  -22.3867   29.4519 C   0  0  0  0  0  0  0  0  0  0  0  0
  -11.2670  -23.4718   28.7354 C   0  0  0  0  0  0  0  0  0  0  0  0
  -11.6024  -23.3583   27.3736 N   0  0  0  0  0  0  0  0  0  0  0  0
  -11.7492  -24.6498   26.6783 C   0  0  0  0  0  0  0  0  0  0  0  0
  -13.2356  -24.7852   26.3119 C   0  0  0  0  0  0  0  0  0  0  0  0
  -13.9689  -23.8011   27.2217 C   0  0  0  0  0  0  0  0  0  0  0  0
  -14.3543  -24.2804   28.5842 N   0  0  0  0  0  0  0  0  0  0  0  0
  -15.7955  -24.0913   28.8454 C   0  0  0  0  0  0  0  0  0  0  0  0
  -16.1295  -24.2194   30.3331 C   0  0  0  0  0  0  0  0  0  0  0  0
  -15.5202  -25.4484   30.9875 C   0  0  0  0  0  0  0  0  0  0  0  0
  -14.1835  -25.8897   30.4144 C   0  0  0  0  0  0  0  0  0  0  0  0
  -14.0583  -25.6747   28.9101 C   0  0  0  0  0  0  0  0  0  0  0  0
  -12.8769  -22.6658   27.1838 C   0  0  0  0  0  0  0  0  0  0  0  0
  -11.3065  -24.6868   29.3069 N   0  0  0  0  0  0  0  0  0  0  0  0
  -10.9303  -24.8136   30.5704 C   0  0  0  0  0  0  0  0  0  0  0  0
  -10.4826  -23.8486   31.3196 N   0  0  0  0  0  0  0  0  0  0  0  0
  -10.5180  -21.2068   34.7020 H   0  0  0  0  0  0  0  0  0  0  0  0
  -10.1513  -19.9894   33.4328 H   0  0  0  0  0  0  0  0  0  0  0  0
  -11.5414  -20.9652   33.2809 H   0  0  0  0  0  0  0  0  0  0  0  0
  -10.0262  -22.9864   33.1830 H   0  0  0  0  0  0  0  0  0  0  0  0
   -8.0432  -21.9858   34.2081 H   0  0  0  0  0  0  0  0  0  0  0  0
   -7.8667  -20.9547   32.7562 H   0  0  0  0  0  0  0  0  0  0  0  0
   -7.6956  -22.6937   32.6125 H   0  0  0  0  0  0  0  0  0  0  0  0
  -10.7255  -21.4012   29.0197 H   0  0  0  0  0  0  0  0  0  0  0  0
  -11.1174  -24.6173   25.7908 H   0  0  0  0  0  0  0  0  0  0  0  0
  -11.4051  -25.5351   27.2223 H   0  0  0  0  0  0  0  0  0  0  0  0
  -13.4197  -24.4632   25.2832 H   0  0  0  0  0  0  0  0  0  0  0  0
  -13.5914  -25.8183   26.3591 H   0  0  0  0  0  0  0  0  0  0  0  0
  -14.8610  -23.4357   26.6974 H   0  0  0  0  0  0  0  0  0  0  0  0
  -16.1506  -23.1140   28.5005 H   0  0  0  0  0  0  0  0  0  0  0  0
  -16.3845  -24.8222   28.2733 H   0  0  0  0  0  0  0  0  0  0  0  0
  -17.2209  -24.2705   30.4418 H   0  0  0  0  0  0  0  0  0  0  0  0
  -15.8521  -23.3165   30.8741 H   0  0  0  0  0  0  0  0  0  0  0  0
  -15.4473  -25.3099   32.0723 H   0  0  0  0  0  0  0  0  0  0  0  0
  -16.2258  -26.2781   30.8434 H   0  0  0  0  0  0  0  0  0  0  0  0
  -13.3808  -25.3994   30.9490 H   0  0  0  0  0  0  0  0  0  0  0  0
  -14.0476  -26.9576   30.6293 H   0  0  0  0  0  0  0  0  0  0  0  0
  -13.0658  -26.0064   28.6138 H   0  0  0  0  0  0  0  0  0  0  0  0
  -14.7467  -26.3537   28.3873 H   0  0  0  0  0  0  0  0  0  0  0  0
  -12.8746  -22.2244   26.1757 H   0  0  0  0  0  0  0  0  0  0  0  0
  -12.9888  -21.8169   27.8424 H   0  0  0  0  0  0  0  0  0  0  0  0
  -11.0343  -25.7915   31.0120 H   0  0  0  0  0  0  0  0  0  0  0  0
  1  2  1  0
  2  3  1  0
  2  4  1  0
  4  5  1  0
  5  6  2  0
  6  7  1  0
  7  8  1  0
  8  9  1  0
  9 10  1  0
 10 11  1  0
 11 12  1  0
 12 13  1  0
 13 14  1  0
 14 15  1  0
 15 16  1  0
 16 17  1  0
 11 18  1  0
  7 19  2  0
 19 20  1  0
 20 21  2  0
 21  5  1  0
 18  8  1  0
 17 12  1  0
  1 22  1  0
  1 23  1  0
  1 24  1  0
  2 25  1  0
  3 26  1  0
  3 27  1  0
  3 28  1  0
  6 29  1  0
  9 30  1  0
  9 31  1  0
 10 32  1  0
 10 33  1  0
 11 34  1  0
 13 35  1  0
 13 36  1  0
 14 37  1  0
 14 38  1  0
 15 39  1  0
 15 40  1  0
 16 41  1  0
 16 42  1  0
 17 43  1  0
 17 44  1  0
 18 45  1  0
 18 46  1  0
 20 47  1  0
M  END
>  <Energy>  (335) 
-1.5764836285300408

>  <compound_id>  (335) 
5925

>  <target_id>  (335) 
1

>  <reference_id>  (335) 
3

>  <inspiration_ids>  (335) 
[3, 46]

>  <energy_score>  (335) 
-21.510828886586424

>  <distance_score>  (335) 
2.7985497062299287

>  <path>  (335) 
/opt/xchem-fragalysis-2/maxwin/BulkDock/SCRATCH/511014/C5925-P3/C5925-P3.minimised.mol

>  <scratch_subdir>  (335) 
/opt/xchem-fragalysis-2/maxwin/BulkDock/SCRATCH/511014/C5925-P3

>  <fragmenstein_runtime>  (335) 
8.70499849319458

>  <fragmenstein_outcome>  (335) 
too moved

>  <fragmenstein_mode>  (335) 
expansion

>  <fragmenstein_error>  (335) 


$$$$
C5925-P46
     RDKit          3D

 47 49  0  0  0  0  0  0  0  0999 V2000
  -11.5974  -24.6789   33.7113 C   0  0  0  0  0  0  0  0  0  0  0  0
  -10.6994  -25.4667   32.7798 C   0  0  0  0  0  0  0  0  0  0  0  0
   -9.3071  -25.0139   33.0889 C   0  0  0  0  0  0  0  0  0  0  0  0
  -10.9360  -25.0750   31.4560 O   0  0  0  0  0  0  0  0  0  0  0  0
  -10.5671  -26.0215   30.4985 C   0  0  0  0  0  0  0  0  0  0  0  0
  -10.0798  -25.3662   29.4047 C   0  0  0  0  0  0  0  0  0  0  0  0
  -10.8723  -25.4695   28.2929 C   0  0  0  0  0  0  0  0  0  0  0  0
  -11.0954  -24.3197   27.4642 N   0  0  0  0  0  0  0  0  0  0  0  0
  -12.5005  -24.3174   27.0544 C   0  0  0  0  0  0  0  0  0  0  0  0
  -13.1945  -23.6144   28.2414 C   0  0  0  0  0  0  0  0  0  0  0  0
  -12.1551  -23.0349   29.2006 C   0  0  0  0  0  0  0  0  0  0  0  0
  -12.3971  -21.8260   30.1294 N   0  0  0  0  0  0  0  0  0  0  0  0
  -13.3191  -22.1643   31.2195 C   0  0  0  0  0  0  0  0  0  0  0  0
  -13.5530  -21.5299   32.5821 C   0  0  0  0  0  0  0  0  0  0  0  0
  -12.2599  -21.1193   33.2137 C   0  0  0  0  0  0  0  0  0  0  0  0
  -11.0580  -21.1645   32.2781 C   0  0  0  0  0  0  0  0  0  0  0  0
  -11.1510  -21.6667   30.8525 C   0  0  0  0  0  0  0  0  0  0  0  0
  -11.0019  -22.9992   28.1732 C   0  0  0  0  0  0  0  0  0  0  0  0
  -11.5994  -26.5773   28.1170 N   0  0  0  0  0  0  0  0  0  0  0  0
  -11.7126  -27.3887   29.1707 C   0  0  0  0  0  0  0  0  0  0  0  0
  -11.3123  -27.1198   30.4125 N   0  0  0  0  0  0  0  0  0  0  0  0
  -11.4165  -23.6188   33.5922 H   0  0  0  0  0  0  0  0  0  0  0  0
  -12.6477  -24.8051   33.4962 H   0  0  0  0  0  0  0  0  0  0  0  0
  -11.4163  -24.9576   34.7510 H   0  0  0  0  0  0  0  0  0  0  0  0
  -10.8622  -26.5351   32.9187 H   0  0  0  0  0  0  0  0  0  0  0  0
   -8.5671  -25.5091   32.4578 H   0  0  0  0  0  0  0  0  0  0  0  0
   -9.1099  -25.2105   34.1454 H   0  0  0  0  0  0  0  0  0  0  0  0
   -9.1921  -23.9420   32.8965 H   0  0  0  0  0  0  0  0  0  0  0  0
   -9.4339  -24.5334   29.5650 H   0  0  0  0  0  0  0  0  0  0  0  0
  -12.5987  -23.7088   26.1463 H   0  0  0  0  0  0  0  0  0  0  0  0
  -12.9549  -25.2819   26.8025 H   0  0  0  0  0  0  0  0  0  0  0  0
  -13.6809  -22.7798   27.8331 H   0  0  0  0  0  0  0  0  0  0  0  0
  -13.8975  -24.2950   28.7011 H   0  0  0  0  0  0  0  0  0  0  0  0
  -11.9947  -23.8583   29.8829 H   0  0  0  0  0  0  0  0  0  0  0  0
  -12.8547  -23.0804   31.5835 H   0  0  0  0  0  0  0  0  0  0  0  0
  -14.3155  -22.1765   30.7761 H   0  0  0  0  0  0  0  0  0  0  0  0
  -14.0288  -22.2750   33.2370 H   0  0  0  0  0  0  0  0  0  0  0  0
  -14.3060  -20.7405   32.5582 H   0  0  0  0  0  0  0  0  0  0  0  0
  -12.3401  -20.1316   33.6807 H   0  0  0  0  0  0  0  0  0  0  0  0
  -12.0943  -21.7702   34.0757 H   0  0  0  0  0  0  0  0  0  0  0  0
  -10.5393  -20.2107   32.3157 H   0  0  0  0  0  0  0  0  0  0  0  0
  -10.3530  -21.8784   32.7142 H   0  0  0  0  0  0  0  0  0  0  0  0
  -10.7604  -22.6733   30.9838 H   0  0  0  0  0  0  0  0  0  0  0  0
  -10.4940  -21.0984   30.2071 H   0  0  0  0  0  0  0  0  0  0  0  0
  -11.2155  -22.1905   27.4641 H   0  0  0  0  0  0  0  0  0  0  0  0
  -10.0031  -22.8168   28.5343 H   0  0  0  0  0  0  0  0  0  0  0  0
  -12.2774  -28.2986   29.0142 H   0  0  0  0  0  0  0  0  0  0  0  0
  1  2  1  0
  2  3  1  0
  2  4  1  0
  4  5  1  0
  5  6  2  0
  6  7  1  0
  7  8  1  0
  8  9  1  0
  9 10  1  0
 10 11  1  0
 11 12  1  0
 12 13  1  0
 13 14  1  0
 14 15  1  0
 15 16  1  0
 16 17  1  0
 11 18  1  0
  7 19  2  0
 19 20  1  0
 20 21  2  0
 21  5  1  0
 18  8  1  0
 17 12  1  0
  1 22  1  0
  1 23  1  0
  1 24  1  0
  2 25  1  0
  3 26  1  0
  3 27  1  0
  3 28  1  0
  6 29  1  0
  9 30  1  0
  9 31  1  0
 10 32  1  0
 10 33  1  0
 11 34  1  0
 13 35  1  0
 13 36  1  0
 14 37  1  0
 14 38  1  0
 15 39  1  0
 15 40  1  0
 16 41  1  0
 16 42  1  0
 17 43  1  0
 17 44  1  0
 18 45  1  0
 18 46  1  0
 20 47  1  0
M  END
>  <Energy>  (336) 
72.429103956149319

>  <compound_id>  (336) 
5925

>  <target_id>  (336) 
1

>  <reference_id>  (336) 
46

>  <inspiration_ids>  (336) 
[3, 46]

>  <energy_score>  (336) 
51.59381176810311

>  <distance_score>  (336) 
3.3081421282940764

>  <path>  (336) 
/opt/xchem-fragalysis-2/maxwin/BulkDock/SCRATCH/511014/C5925-P46/C5925-P46.minimised.mol

>  <scratch_subdir>  (336) 
/opt/xchem-fragalysis-2/maxwin/BulkDock/SCRATCH/511014/C5925-P46

>  <fragmenstein_runtime>  (336) 
11.45029592514038

>  <fragmenstein_outcome>  (336) 
too moved

>  <fragmenstein_mode>  (336) 
expansion

>  <fragmenstein_error>  (336) 


$$$$
C5926-P3
     RDKit          3D

 48 50  0  0  0  0  0  0  0  0999 V2000
   -9.1663  -21.2893   33.7373 C   0  0  0  0  0  0  0  0  0  0  0  0
   -9.2805  -22.4266   32.7977 C   0  0  0  0  0  0  0  0  0  0  0  0
   -7.9271  -22.9077   32.3525 C   0  0  0  0  0  0  0  0  0  0  0  0
  -10.0081  -21.9239   31.6896 O   0  0  0  0  0  0  0  0  0  0  0  0
  -10.4968  -22.8786   30.8657 C   0  0  0  0  0  0  0  0  0  0  0  0
  -10.5832  -24.1994   31.2575 C   0  0  0  0  0  0  0  0  0  0  0  0
  -11.1335  -25.0922   30.4052 C   0  0  0  0  0  0  0  0  0  0  0  0
  -11.3870  -24.6625   29.1275 C   0  0  0  0  0  0  0  0  0  0  0  0
  -11.2453  -23.3304   28.7397 C   0  0  0  0  0  0  0  0  0  0  0  0
  -11.3337  -22.9475   27.4049 N   0  0  0  0  0  0  0  0  0  0  0  0
  -12.1826  -21.7827   27.1594 C   0  0  0  0  0  0  0  0  0  0  0  0
  -13.2270  -22.2725   26.1368 C   0  0  0  0  0  0  0  0  0  0  0  0
  -13.2529  -23.7974   26.2861 C   0  0  0  0  0  0  0  0  0  0  0  0
  -13.9467  -24.3446   27.4827 N   0  0  0  0  0  0  0  0  0  0  0  0
  -13.9478  -25.8080   27.5319 C   0  0  0  0  0  0  0  0  0  0  0  0
  -14.2658  -26.2977   28.9528 C   0  0  0  0  0  0  0  0  0  0  0  0
  -14.8002  -25.2019   29.8613 C   0  0  0  0  0  0  0  0  0  0  0  0
  -15.8212  -24.3527   29.1228 C   0  0  0  0  0  0  0  0  0  0  0  0
  -15.3259  -23.9150   27.7245 C   0  0  0  0  0  0  0  0  0  0  0  0
  -11.7060  -23.9375   26.4043 C   0  0  0  0  0  0  0  0  0  0  0  0
  -10.8703  -22.4241   29.6517 N   0  0  0  0  0  0  0  0  0  0  0  0
   -8.6582  -20.4465   33.2620 H   0  0  0  0  0  0  0  0  0  0  0  0
  -10.1692  -20.9533   34.0264 H   0  0  0  0  0  0  0  0  0  0  0  0
   -8.6135  -21.6186   34.6207 H   0  0  0  0  0  0  0  0  0  0  0  0
   -9.8114  -23.1819   33.3788 H   0  0  0  0  0  0  0  0  0  0  0  0
   -7.6543  -22.4494   31.4038 H   0  0  0  0  0  0  0  0  0  0  0  0
   -7.1640  -22.6972   33.1035 H   0  0  0  0  0  0  0  0  0  0  0  0
   -7.9417  -23.9879   32.1790 H   0  0  0  0  0  0  0  0  0  0  0  0
  -10.2242  -24.5982   32.1937 H   0  0  0  0  0  0  0  0  0  0  0  0
  -11.2616  -26.1343   30.6665 H   0  0  0  0  0  0  0  0  0  0  0  0
  -11.6168  -25.4406   28.4258 H   0  0  0  0  0  0  0  0  0  0  0  0
  -12.6354  -21.3904   28.0603 H   0  0  0  0  0  0  0  0  0  0  0  0
  -11.6020  -20.9627   26.7334 H   0  0  0  0  0  0  0  0  0  0  0  0
  -12.8733  -22.0161   25.1269 H   0  0  0  0  0  0  0  0  0  0  0  0
  -14.1987  -21.8074   26.2126 H   0  0  0  0  0  0  0  0  0  0  0  0
  -13.6486  -24.2645   25.3788 H   0  0  0  0  0  0  0  0  0  0  0  0
  -13.0102  -26.2624   27.1980 H   0  0  0  0  0  0  0  0  0  0  0  0
  -14.6952  -26.2106   26.8330 H   0  0  0  0  0  0  0  0  0  0  0  0
  -13.3849  -26.7594   29.4103 H   0  0  0  0  0  0  0  0  0  0  0  0
  -15.0163  -27.0955   28.8804 H   0  0  0  0  0  0  0  0  0  0  0  0
  -13.9591  -24.5863   30.1429 H   0  0  0  0  0  0  0  0  0  0  0  0
  -15.2270  -25.6247   30.7763 H   0  0  0  0  0  0  0  0  0  0  0  0
  -16.7387  -24.9411   28.9915 H   0  0  0  0  0  0  0  0  0  0  0  0
  -16.1042  -23.4895   29.7324 H   0  0  0  0  0  0  0  0  0  0  0  0
  -15.4554  -22.8425   27.6235 H   0  0  0  0  0  0  0  0  0  0  0  0
  -15.9939  -24.3354   26.9594 H   0  0  0  0  0  0  0  0  0  0  0  0
  -11.2083  -23.6086   25.4848 H   0  0  0  0  0  0  0  0  0  0  0  0
  -11.3472  -24.9578   26.5514 H   0  0  0  0  0  0  0  0  0  0  0  0
  1  2  1  0
  2  3  1  0
  2  4  1  0
  4  5  1  0
  5  6  2  0
  6  7  1  0
  7  8  2  0
  8  9  1  0
  9 10  1  0
 10 11  1  0
 11 12  1  0
 12 13  1  0
 13 14  1  0
 14 15  1  0
 15 16  1  0
 16 17  1  0
 17 18  1  0
 18 19  1  0
 13 20  1  0
  9 21  2  0
 21  5  1  0
 20 10  1  0
 19 14  1  0
  1 22  1  0
  1 23  1  0
  1 24  1  0
  2 25  1  0
  3 26  1  0
  3 27  1  0
  3 28  1  0
  6 29  1  0
  7 30  1  0
  8 31  1  0
 11 32  1  0
 11 33  1  0
 12 34  1  0
 12 35  1  0
 13 36  1  0
 15 37  1  0
 15 38  1  0
 16 39  1  0
 16 40  1  0
 17 41  1  0
 17 42  1  0
 18 43  1  0
 18 44  1  0
 19 45  1  0
 19 46  1  0
 20 47  1  0
 20 48  1  0
M  END
>  <Energy>  (337) 
53.284916767091829

>  <compound_id>  (337) 
5926

>  <target_id>  (337) 
1

>  <reference_id>  (337) 
3

>  <inspiration_ids>  (337) 
[3, 46]

>  <energy_score>  (337) 
0.9883848333106471

>  <distance_score>  (337) 
2.9744050144956824

>  <path>  (337) 
/opt/xchem-fragalysis-2/maxwin/BulkDock/SCRATCH/511014/C5926-P3/C5926-P3.minimised.mol

>  <scratch_subdir>  (337) 
/opt/xchem-fragalysis-2/maxwin/BulkDock/SCRATCH/511014/C5926-P3

>  <fragmenstein_runtime>  (337) 
10.543403625488281

>  <fragmenstein_outcome>  (337) 
too moved

>  <fragmenstein_mode>  (337) 
expansion

>  <fragmenstein_error>  (337) 


$$$$
C5926-P46
     RDKit          3D

 48 50  0  0  0  0  0  0  0  0999 V2000
  -10.5147  -25.1017   34.4297 C   0  0  0  0  0  0  0  0  0  0  0  0
   -9.8773  -24.8138   33.1098 C   0  0  0  0  0  0  0  0  0  0  0  0
   -9.1439  -23.5389   33.0058 C   0  0  0  0  0  0  0  0  0  0  0  0
  -10.9315  -24.6874   32.1962 O   0  0  0  0  0  0  0  0  0  0  0  0
  -10.5804  -25.2643   31.0221 C   0  0  0  0  0  0  0  0  0  0  0  0
  -10.9138  -26.5625   30.8676 C   0  0  0  0  0  0  0  0  0  0  0  0
  -11.0269  -26.9813   29.5705 C   0  0  0  0  0  0  0  0  0  0  0  0
  -10.8222  -26.1237   28.5004 C   0  0  0  0  0  0  0  0  0  0  0  0
  -10.6024  -24.7921   28.7678 C   0  0  0  0  0  0  0  0  0  0  0  0
  -10.9302  -23.7779   27.8197 N   0  0  0  0  0  0  0  0  0  0  0  0
  -12.2068  -24.0963   27.1775 C   0  0  0  0  0  0  0  0  0  0  0  0
  -13.2410  -23.6359   28.2163 C   0  0  0  0  0  0  0  0  0  0  0  0
  -12.5430  -22.8992   29.3601 C   0  0  0  0  0  0  0  0  0  0  0  0
  -13.0267  -21.8938   30.3587 N   0  0  0  0  0  0  0  0  0  0  0  0
  -11.9294  -21.7868   31.3444 C   0  0  0  0  0  0  0  0  0  0  0  0
  -12.2091  -21.5286   32.8054 C   0  0  0  0  0  0  0  0  0  0  0  0
  -13.4447  -22.1961   33.3118 C   0  0  0  0  0  0  0  0  0  0  0  0
  -14.6268  -21.7877   32.4949 C   0  0  0  0  0  0  0  0  0  0  0  0
  -14.3950  -21.8671   30.9846 C   0  0  0  0  0  0  0  0  0  0  0  0
  -11.2794  -22.5097   28.5354 C   0  0  0  0  0  0  0  0  0  0  0  0
  -10.3300  -24.4207   30.0185 N   0  0  0  0  0  0  0  0  0  0  0  0
  -10.8999  -26.1208   34.4318 H   0  0  0  0  0  0  0  0  0  0  0  0
   -9.7862  -25.0491   35.2389 H   0  0  0  0  0  0  0  0  0  0  0  0
  -11.3898  -24.4738   34.6235 H   0  0  0  0  0  0  0  0  0  0  0  0
   -9.1828  -25.6124   32.8504 H   0  0  0  0  0  0  0  0  0  0  0  0
   -8.3397  -23.8016   32.3301 H   0  0  0  0  0  0  0  0  0  0  0  0
   -9.7578  -22.7417   32.6117 H   0  0  0  0  0  0  0  0  0  0  0  0
   -8.6407  -23.1291   33.8637 H   0  0  0  0  0  0  0  0  0  0  0  0
  -11.1682  -27.1937   31.7077 H   0  0  0  0  0  0  0  0  0  0  0  0
  -11.3903  -27.9760   29.3645 H   0  0  0  0  0  0  0  0  0  0  0  0
  -10.9657  -26.4931   27.4919 H   0  0  0  0  0  0  0  0  0  0  0  0
  -12.2945  -23.5002   26.2600 H   0  0  0  0  0  0  0  0  0  0  0  0
  -12.3731  -25.1275   26.8543 H   0  0  0  0  0  0  0  0  0  0  0  0
  -13.8656  -24.4637   28.5344 H   0  0  0  0  0  0  0  0  0  0  0  0
  -13.7887  -22.9088   27.7149 H   0  0  0  0  0  0  0  0  0  0  0  0
  -12.3582  -23.7449   30.0079 H   0  0  0  0  0  0  0  0  0  0  0  0
  -11.3739  -22.7058   31.3536 H   0  0  0  0  0  0  0  0  0  0  0  0
  -11.1928  -21.0613   30.9930 H   0  0  0  0  0  0  0  0  0  0  0  0
  -12.2069  -20.4688   33.0515 H   0  0  0  0  0  0  0  0  0  0  0  0
  -11.4055  -21.9492   33.3963 H   0  0  0  0  0  0  0  0  0  0  0  0
  -13.6238  -21.8673   34.3283 H   0  0  0  0  0  0  0  0  0  0  0  0
  -13.3089  -23.2788   33.3539 H   0  0  0  0  0  0  0  0  0  0  0  0
  -15.5025  -22.3841   32.7798 H   0  0  0  0  0  0  0  0  0  0  0  0
  -14.8900  -20.7562   32.7650 H   0  0  0  0  0  0  0  0  0  0  0  0
  -15.1126  -22.5259   30.5154 H   0  0  0  0  0  0  0  0  0  0  0  0
  -14.9358  -20.9644   30.6776 H   0  0  0  0  0  0  0  0  0  0  0  0
  -10.4686  -22.0640   29.0874 H   0  0  0  0  0  0  0  0  0  0  0  0
  -11.5507  -21.7607   27.7862 H   0  0  0  0  0  0  0  0  0  0  0  0
  1  2  1  0
  2  3  1  0
  2  4  1  0
  4  5  1  0
  5  6  2  0
  6  7  1  0
  7  8  2  0
  8  9  1  0
  9 10  1  0
 10 11  1  0
 11 12  1  0
 12 13  1  0
 13 14  1  0
 14 15  1  0
 15 16  1  0
 16 17  1  0
 17 18  1  0
 18 19  1  0
 13 20  1  0
  9 21  2  0
 21  5  1  0
 20 10  1  0
 19 14  1  0
  1 22  1  0
  1 23  1  0
  1 24  1  0
  2 25  1  0
  3 26  1  0
  3 27  1  0
  3 28  1  0
  6 29  1  0
  7 30  1  0
  8 31  1  0
 11 32  1  0
 11 33  1  0
 12 34  1  0
 12 35  1  0
 13 36  1  0
 15 37  1  0
 15 38  1  0
 16 39  1  0
 16 40  1  0
 17 41  1  0
 17 42  1  0
 18 43  1  0
 18 44  1  0
 19 45  1  0
 19 46  1  0
 20 47  1  0
 20 48  1  0
M  END
>  <Energy>  (338) 
100.2622158800562

>  <compound_id>  (338) 
5926

>  <target_id>  (338) 
1

>  <reference_id>  (338) 
46

>  <inspiration_ids>  (338) 
[3, 46]

>  <energy_score>  (338) 
47.96568394627832

>  <distance_score>  (338) 
3.030891503648151

>  <path>  (338) 
/opt/xchem-fragalysis-2/maxwin/BulkDock/SCRATCH/511014/C5926-P46/C5926-P46.minimised.mol

>  <scratch_subdir>  (338) 
/opt/xchem-fragalysis-2/maxwin/BulkDock/SCRATCH/511014/C5926-P46

>  <fragmenstein_runtime>  (338) 
8.923770427703857

>  <fragmenstein_outcome>  (338) 
too moved

>  <fragmenstein_mode>  (338) 
expansion

>  <fragmenstein_error>  (338) 


$$$$
C5928-P3
     RDKit          3D

 45 47  0  0  0  0  0  0  0  0999 V2000
   -9.9806  -21.9939   27.3968 O   0  0  0  0  0  0  0  0  0  0  0  0
  -10.8233  -22.3279   28.1331 C   0  0  0  0  0  0  0  0  0  0  0  0
  -11.1598  -21.4226   29.3379 C   0  0  0  0  0  0  0  0  0  0  0  0
  -10.8752  -20.0575   29.0345 O   0  0  0  0  0  0  0  0  0  0  0  0
  -10.5705  -21.7483   30.6948 C   0  0  0  0  0  0  0  0  0  0  0  0
   -9.6991  -22.8098   30.9504 C   0  0  0  0  0  0  0  0  0  0  0  0
   -9.1367  -22.9851   32.2164 C   0  0  0  0  0  0  0  0  0  0  0  0
   -9.4735  -22.1268   33.2592 C   0  0  0  0  0  0  0  0  0  0  0  0
  -10.3800  -21.0993   33.0428 C   0  0  0  0  0  0  0  0  0  0  0  0
  -10.9061  -20.9014   31.7698 C   0  0  0  0  0  0  0  0  0  0  0  0
  -11.7270  -23.5184   28.0928 N   0  0  0  0  0  0  0  0  0  0  0  0
  -11.7589  -24.7030   27.1476 C   0  0  0  0  0  0  0  0  0  0  0  0
  -13.1290  -25.3380   26.9308 C   0  0  0  0  0  0  0  0  0  0  0  0
  -13.9783  -24.3317   27.6382 C   0  0  0  0  0  0  0  0  0  0  0  0
  -14.2125  -24.5498   29.0965 N   0  0  0  0  0  0  0  0  0  0  0  0
  -13.2742  -25.3777   29.8709 C   0  0  0  0  0  0  0  0  0  0  0  0
  -13.8785  -25.9687   31.1504 C   0  0  0  0  0  0  0  0  0  0  0  0
  -15.1024  -26.8010   30.8239 C   0  0  0  0  0  0  0  0  0  0  0  0
  -15.9775  -26.1599   29.7532 C   0  0  0  0  0  0  0  0  0  0  0  0
  -15.6160  -24.7066   29.4908 C   0  0  0  0  0  0  0  0  0  0  0  0
  -12.9817  -23.2187   27.3510 C   0  0  0  0  0  0  0  0  0  0  0  0
  -12.2226  -21.4533   29.4535 H   0  0  0  0  0  0  0  0  0  0  0  0
  -10.5001  -20.0224   28.1352 H   0  0  0  0  0  0  0  0  0  0  0  0
   -9.4198  -23.5051   30.1729 H   0  0  0  0  0  0  0  0  0  0  0  0
   -8.4316  -23.7960   32.3880 H   0  0  0  0  0  0  0  0  0  0  0  0
   -9.0410  -22.2724   34.2416 H   0  0  0  0  0  0  0  0  0  0  0  0
  -10.6974  -20.4512   33.8543 H   0  0  0  0  0  0  0  0  0  0  0  0
  -11.5924  -20.0677   31.6122 H   0  0  0  0  0  0  0  0  0  0  0  0
  -11.1205  -25.4573   27.6208 H   0  0  0  0  0  0  0  0  0  0  0  0
  -11.2428  -24.4467   26.2101 H   0  0  0  0  0  0  0  0  0  0  0  0
  -13.3598  -25.3722   25.8584 H   0  0  0  0  0  0  0  0  0  0  0  0
  -13.2163  -26.3677   27.2854 H   0  0  0  0  0  0  0  0  0  0  0  0
  -14.9153  -24.1510   27.1012 H   0  0  0  0  0  0  0  0  0  0  0  0
  -12.3754  -24.8121   30.1294 H   0  0  0  0  0  0  0  0  0  0  0  0
  -12.9346  -26.2429   29.2947 H   0  0  0  0  0  0  0  0  0  0  0  0
  -14.2023  -25.2128   31.8635 H   0  0  0  0  0  0  0  0  0  0  0  0
  -13.1332  -26.5849   31.6664 H   0  0  0  0  0  0  0  0  0  0  0  0
  -15.6862  -26.9607   31.7385 H   0  0  0  0  0  0  0  0  0  0  0  0
  -14.7964  -27.7980   30.4837 H   0  0  0  0  0  0  0  0  0  0  0  0
  -15.8804  -26.7303   28.8202 H   0  0  0  0  0  0  0  0  0  0  0  0
  -17.0311  -26.2354   30.0466 H   0  0  0  0  0  0  0  0  0  0  0  0
  -16.2955  -24.2846   28.7410 H   0  0  0  0  0  0  0  0  0  0  0  0
  -15.8008  -24.1211   30.3996 H   0  0  0  0  0  0  0  0  0  0  0  0
  -13.3386  -22.2496   27.6748 H   0  0  0  0  0  0  0  0  0  0  0  0
  -12.8135  -22.9990   26.2756 H   0  0  0  0  0  0  0  0  0  0  0  0
  1  2  2  0
  2  3  1  0
  3  4  1  0
  3  5  1  0
  5  6  2  0
  6  7  1  0
  7  8  2  0
  8  9  1  0
  9 10  2  0
  2 11  1  0
 11 12  1  0
 12 13  1  0
 13 14  1  0
 14 15  1  0
 15 16  1  0
 16 17  1  0
 17 18  1  0
 18 19  1  0
 19 20  1  0
 14 21  1  0
 10  5  1  0
 21 11  1  0
 20 15  1  0
  3 22  1  0
  4 23  1  0
  6 24  1  0
  7 25  1  0
  8 26  1  0
  9 27  1  0
 10 28  1  0
 12 29  1  0
 12 30  1  0
 13 31  1  0
 13 32  1  0
 14 33  1  0
 16 34  1  0
 16 35  1  0
 17 36  1  0
 17 37  1  0
 18 38  1  0
 18 39  1  0
 19 40  1  0
 19 41  1  0
 20 42  1  0
 20 43  1  0
 21 44  1  0
 21 45  1  0
M  END
>  <Energy>  (339) 
179.28264153868963

>  <compound_id>  (339) 
5928

>  <target_id>  (339) 
1

>  <reference_id>  (339) 
3

>  <inspiration_ids>  (339) 
[3, 46]

>  <energy_score>  (339) 
54.98837476122526

>  <distance_score>  (339) 
2.3194092817376872

>  <path>  (339) 
/opt/xchem-fragalysis-2/maxwin/BulkDock/SCRATCH/511014/C5928-P3/C5928-P3.minimised.mol

>  <scratch_subdir>  (339) 
/opt/xchem-fragalysis-2/maxwin/BulkDock/SCRATCH/511014/C5928-P3

>  <fragmenstein_runtime>  (339) 
7.648804664611816

>  <fragmenstein_outcome>  (339) 
too moved

>  <fragmenstein_mode>  (339) 
expansion

>  <fragmenstein_error>  (339) 


$$$$
C5928-P46
     RDKit          3D

 45 47  0  0  0  0  0  0  0  0999 V2000
  -11.2692  -22.1402   27.7642 O   0  0  0  0  0  0  0  0  0  0  0  0
  -11.5086  -23.0480   28.5179 C   0  0  0  0  0  0  0  0  0  0  0  0
  -11.6883  -22.5643   29.9662 C   0  0  0  0  0  0  0  0  0  0  0  0
  -12.9384  -21.9037   29.9714 O   0  0  0  0  0  0  0  0  0  0  0  0
  -11.4485  -23.3996   31.1862 C   0  0  0  0  0  0  0  0  0  0  0  0
  -12.0403  -23.0318   32.4033 C   0  0  0  0  0  0  0  0  0  0  0  0
  -11.8355  -23.7842   33.5522 C   0  0  0  0  0  0  0  0  0  0  0  0
  -10.9352  -24.8388   33.5349 C   0  0  0  0  0  0  0  0  0  0  0  0
  -10.2516  -25.1349   32.3694 C   0  0  0  0  0  0  0  0  0  0  0  0
  -10.5254  -24.4420   31.2035 C   0  0  0  0  0  0  0  0  0  0  0  0
  -11.5495  -24.4340   28.2919 N   0  0  0  0  0  0  0  0  0  0  0  0
  -11.2114  -25.2197   27.1055 C   0  0  0  0  0  0  0  0  0  0  0  0
  -11.9586  -26.4434   26.6803 C   0  0  0  0  0  0  0  0  0  0  0  0
  -13.0670  -26.3928   27.6455 C   0  0  0  0  0  0  0  0  0  0  0  0
  -12.9305  -27.3338   28.7818 N   0  0  0  0  0  0  0  0  0  0  0  0
  -11.6996  -27.3419   29.5857 C   0  0  0  0  0  0  0  0  0  0  0  0
  -11.8106  -28.1540   30.9113 C   0  0  0  0  0  0  0  0  0  0  0  0
  -12.7866  -29.3635   30.9172 C   0  0  0  0  0  0  0  0  0  0  0  0
  -13.8512  -29.3903   29.8258 C   0  0  0  0  0  0  0  0  0  0  0  0
  -13.4076  -28.6887   28.5554 C   0  0  0  0  0  0  0  0  0  0  0  0
  -12.9372  -24.8622   27.9015 C   0  0  0  0  0  0  0  0  0  0  0  0
  -10.9628  -21.7462   30.0802 H   0  0  0  0  0  0  0  0  0  0  0  0
  -12.7657  -21.1996   29.3126 H   0  0  0  0  0  0  0  0  0  0  0  0
  -12.7460  -22.2056   32.4449 H   0  0  0  0  0  0  0  0  0  0  0  0
  -12.3838  -23.5457   34.4586 H   0  0  0  0  0  0  0  0  0  0  0  0
  -10.7705  -25.4262   34.4298 H   0  0  0  0  0  0  0  0  0  0  0  0
   -9.5217  -25.9306   32.3343 H   0  0  0  0  0  0  0  0  0  0  0  0
   -9.9851  -24.7353   30.3080 H   0  0  0  0  0  0  0  0  0  0  0  0
  -10.2521  -25.6044   27.4264 H   0  0  0  0  0  0  0  0  0  0  0  0
  -11.0433  -24.5294   26.2669 H   0  0  0  0  0  0  0  0  0  0  0  0
  -12.3025  -26.3386   25.6447 H   0  0  0  0  0  0  0  0  0  0  0  0
  -11.3160  -27.3222   26.7397 H   0  0  0  0  0  0  0  0  0  0  0  0
  -14.0366  -26.5683   27.1647 H   0  0  0  0  0  0  0  0  0  0  0  0
  -10.8610  -27.6754   28.9869 H   0  0  0  0  0  0  0  0  0  0  0  0
  -11.4460  -26.3299   29.8721 H   0  0  0  0  0  0  0  0  0  0  0  0
  -12.0884  -27.4781   31.7242 H   0  0  0  0  0  0  0  0  0  0  0  0
  -10.8160  -28.4633   31.2455 H   0  0  0  0  0  0  0  0  0  0  0  0
  -13.3053  -29.4300   31.8671 H   0  0  0  0  0  0  0  0  0  0  0  0
  -12.2489  -30.3157   30.9240 H   0  0  0  0  0  0  0  0  0  0  0  0
  -14.7914  -28.9563   30.1862 H   0  0  0  0  0  0  0  0  0  0  0  0
  -14.0947  -30.4353   29.5952 H   0  0  0  0  0  0  0  0  0  0  0  0
  -14.2558  -28.7017   27.8620 H   0  0  0  0  0  0  0  0  0  0  0  0
  -12.5958  -29.2971   28.1544 H   0  0  0  0  0  0  0  0  0  0  0  0
  -13.2799  -24.2764   27.0261 H   0  0  0  0  0  0  0  0  0  0  0  0
  -13.6128  -24.5298   28.6873 H   0  0  0  0  0  0  0  0  0  0  0  0
  1  2  2  0
  2  3  1  0
  3  4  1  0
  3  5  1  0
  5  6  2  0
  6  7  1  0
  7  8  2  0
  8  9  1  0
  9 10  2  0
  2 11  1  0
 11 12  1  0
 12 13  1  0
 13 14  1  0
 14 15  1  0
 15 16  1  0
 16 17  1  0
 17 18  1  0
 18 19  1  0
 19 20  1  0
 14 21  1  0
 10  5  1  0
 21 11  1  0
 20 15  1  0
  3 22  1  0
  4 23  1  0
  6 24  1  0
  7 25  1  0
  8 26  1  0
  9 27  1  0
 10 28  1  0
 12 29  1  0
 12 30  1  0
 13 31  1  0
 13 32  1  0
 14 33  1  0
 16 34  1  0
 16 35  1  0
 17 36  1  0
 17 37  1  0
 18 38  1  0
 18 39  1  0
 19 40  1  0
 19 41  1  0
 20 42  1  0
 20 43  1  0
 21 44  1  0
 21 45  1  0
M  END
>  <Energy>  (340) 
176.99988232493916

>  <compound_id>  (340) 
5928

>  <target_id>  (340) 
1

>  <reference_id>  (340) 
46

>  <inspiration_ids>  (340) 
[3, 46]

>  <energy_score>  (340) 
29.59387186897885

>  <distance_score>  (340) 
4.1625118956203435

>  <path>  (340) 
/opt/xchem-fragalysis-2/maxwin/BulkDock/SCRATCH/511014/C5928-P46/C5928-P46.minimised.mol

>  <scratch_subdir>  (340) 
/opt/xchem-fragalysis-2/maxwin/BulkDock/SCRATCH/511014/C5928-P46

>  <fragmenstein_runtime>  (340) 
16.093663930892944

>  <fragmenstein_outcome>  (340) 
too moved

>  <fragmenstein_mode>  (340) 
expansion

>  <fragmenstein_error>  (340) 


$$$$
C5929-P3
     RDKit          3D

 49 51  0  0  0  0  0  0  0  0999 V2000
  -10.5730  -22.8838   26.6507 O   0  0  0  0  0  0  0  0  0  0  0  0
  -11.2668  -23.2798   27.5481 C   0  0  0  0  0  0  0  0  0  0  0  0
  -11.5750  -22.3612   28.7429 C   0  0  0  0  0  0  0  0  0  0  0  0
  -11.9817  -21.1141   28.1753 O   0  0  0  0  0  0  0  0  0  0  0  0
  -10.5354  -22.1147   29.8455 C   0  0  0  0  0  0  0  0  0  0  0  0
  -10.2360  -23.3371   30.7172 C   0  0  0  0  0  0  0  0  0  0  0  0
   -9.2028  -23.0379   31.8074 C   0  0  0  0  0  0  0  0  0  0  0  0
   -9.1133  -21.6540   32.1308 O   0  0  0  0  0  0  0  0  0  0  0  0
  -10.3828  -21.0189   32.1764 C   0  0  0  0  0  0  0  0  0  0  0  0
  -10.9987  -20.9627   30.7795 C   0  0  0  0  0  0  0  0  0  0  0  0
  -11.9551  -24.5239   27.7120 N   0  0  0  0  0  0  0  0  0  0  0  0
  -11.9424  -25.7608   26.8789 C   0  0  0  0  0  0  0  0  0  0  0  0
  -13.1347  -26.6781   27.0340 C   0  0  0  0  0  0  0  0  0  0  0  0
  -14.1893  -25.6802   27.3859 C   0  0  0  0  0  0  0  0  0  0  0  0
  -14.7490  -25.9032   28.7297 N   0  0  0  0  0  0  0  0  0  0  0  0
  -15.9912  -25.1397   28.9402 C   0  0  0  0  0  0  0  0  0  0  0  0
  -16.3378  -24.8620   30.4064 C   0  0  0  0  0  0  0  0  0  0  0  0
  -15.8986  -25.9945   31.3169 C   0  0  0  0  0  0  0  0  0  0  0  0
  -14.4209  -26.3305   31.1341 C   0  0  0  0  0  0  0  0  0  0  0  0
  -13.8165  -25.7764   29.8430 C   0  0  0  0  0  0  0  0  0  0  0  0
  -13.3569  -24.4242   27.1469 C   0  0  0  0  0  0  0  0  0  0  0  0
  -12.4256  -22.8132   29.2310 H   0  0  0  0  0  0  0  0  0  0  0  0
  -11.2658  -20.8444   27.5629 H   0  0  0  0  0  0  0  0  0  0  0  0
   -9.6125  -21.8010   29.3554 H   0  0  0  0  0  0  0  0  0  0  0  0
  -11.1569  -23.6632   31.2010 H   0  0  0  0  0  0  0  0  0  0  0  0
   -9.9184  -24.2047   30.1464 H   0  0  0  0  0  0  0  0  0  0  0  0
   -8.2111  -23.3495   31.4730 H   0  0  0  0  0  0  0  0  0  0  0  0
   -9.4312  -23.6055   32.7151 H   0  0  0  0  0  0  0  0  0  0  0  0
  -10.2532  -20.0051   32.5642 H   0  0  0  0  0  0  0  0  0  0  0  0
  -11.0210  -21.5525   32.8842 H   0  0  0  0  0  0  0  0  0  0  0  0
  -12.0811  -20.9370   30.8901 H   0  0  0  0  0  0  0  0  0  0  0  0
  -10.7679  -20.0008   30.3062 H   0  0  0  0  0  0  0  0  0  0  0  0
  -11.0571  -26.3120   27.2171 H   0  0  0  0  0  0  0  0  0  0  0  0
  -11.7085  -25.5223   25.8366 H   0  0  0  0  0  0  0  0  0  0  0  0
  -13.3521  -27.2008   26.0961 H   0  0  0  0  0  0  0  0  0  0  0  0
  -12.9685  -27.4483   27.7941 H   0  0  0  0  0  0  0  0  0  0  0  0
  -15.0057  -25.7347   26.6548 H   0  0  0  0  0  0  0  0  0  0  0  0
  -16.8106  -25.7110   28.4868 H   0  0  0  0  0  0  0  0  0  0  0  0
  -15.9617  -24.1733   28.4217 H   0  0  0  0  0  0  0  0  0  0  0  0
  -15.8566  -23.9331   30.7267 H   0  0  0  0  0  0  0  0  0  0  0  0
  -17.4174  -24.6999   30.5047 H   0  0  0  0  0  0  0  0  0  0  0  0
  -16.4984  -26.8854   31.0909 H   0  0  0  0  0  0  0  0  0  0  0  0
  -16.1003  -25.7439   32.3645 H   0  0  0  0  0  0  0  0  0  0  0  0
  -13.8457  -25.9509   31.9846 H   0  0  0  0  0  0  0  0  0  0  0  0
  -14.3073  -27.4219   31.1566 H   0  0  0  0  0  0  0  0  0  0  0  0
  -13.5383  -24.7317   29.9666 H   0  0  0  0  0  0  0  0  0  0  0  0
  -12.8849  -26.3260   29.6720 H   0  0  0  0  0  0  0  0  0  0  0  0
  -13.3325  -24.1235   26.0831 H   0  0  0  0  0  0  0  0  0  0  0  0
  -13.8424  -23.5683   27.6296 H   0  0  0  0  0  0  0  0  0  0  0  0
  1  2  2  0
  2  3  1  0
  3  4  1  0
  3  5  1  0
  5  6  1  0
  6  7  1  0
  7  8  1  0
  8  9  1  0
  9 10  1  0
  2 11  1  0
 11 12  1  0
 12 13  1  0
 13 14  1  0
 14 15  1  0
 15 16  1  0
 16 17  1  0
 17 18  1  0
 18 19  1  0
 19 20  1  0
 14 21  1  0
 10  5  1  0
 21 11  1  0
 20 15  1  0
  3 22  1  0
  4 23  1  0
  5 24  1  0
  6 25  1  0
  6 26  1  0
  7 27  1  0
  7 28  1  0
  9 29  1  0
  9 30  1  0
 10 31  1  0
 10 32  1  0
 12 33  1  0
 12 34  1  0
 13 35  1  0
 13 36  1  0
 14 37  1  0
 16 38  1  0
 16 39  1  0
 17 40  1  0
 17 41  1  0
 18 42  1  0
 18 43  1  0
 19 44  1  0
 19 45  1  0
 20 46  1  0
 20 47  1  0
 21 48  1  0
 21 49  1  0
M  END
>  <Energy>  (341) 
130.88553951457115

>  <compound_id>  (341) 
5929

>  <target_id>  (341) 
1

>  <reference_id>  (341) 
3

>  <inspiration_ids>  (341) 
[3, 46]

>  <energy_score>  (341) 
16.812784524692205

>  <distance_score>  (341) 
2.6857002231274842

>  <path>  (341) 
/opt/xchem-fragalysis-2/maxwin/BulkDock/SCRATCH/511014/C5929-P3/C5929-P3.minimised.mol

>  <scratch_subdir>  (341) 
/opt/xchem-fragalysis-2/maxwin/BulkDock/SCRATCH/511014/C5929-P3

>  <fragmenstein_runtime>  (341) 
12.146007061004639

>  <fragmenstein_outcome>  (341) 
too moved

>  <fragmenstein_mode>  (341) 
expansion

>  <fragmenstein_error>  (341) 


$$$$
C5929-P46
     RDKit          3D

 49 51  0  0  0  0  0  0  0  0999 V2000
  -11.2546  -20.9154   29.8409 O   0  0  0  0  0  0  0  0  0  0  0  0
  -11.5737  -22.0643   29.9903 C   0  0  0  0  0  0  0  0  0  0  0  0
  -11.9963  -22.4028   31.4323 C   0  0  0  0  0  0  0  0  0  0  0  0
  -11.9970  -21.2070   32.2411 O   0  0  0  0  0  0  0  0  0  0  0  0
  -11.0943  -23.3496   32.1748 C   0  0  0  0  0  0  0  0  0  0  0  0
  -10.6050  -24.5781   31.4361 C   0  0  0  0  0  0  0  0  0  0  0  0
   -9.5016  -25.2145   32.2519 C   0  0  0  0  0  0  0  0  0  0  0  0
   -9.6132  -24.9063   33.6420 O   0  0  0  0  0  0  0  0  0  0  0  0
  -10.9688  -24.9923   34.0491 C   0  0  0  0  0  0  0  0  0  0  0  0
  -11.7578  -23.8250   33.4770 C   0  0  0  0  0  0  0  0  0  0  0  0
  -11.5505  -23.1530   29.0783 N   0  0  0  0  0  0  0  0  0  0  0  0
  -11.0284  -23.2440   27.6970 C   0  0  0  0  0  0  0  0  0  0  0  0
  -11.6986  -24.1286   26.6686 C   0  0  0  0  0  0  0  0  0  0  0  0
  -12.9372  -24.4492   27.4108 C   0  0  0  0  0  0  0  0  0  0  0  0
  -12.9987  -25.7282   28.1444 N   0  0  0  0  0  0  0  0  0  0  0  0
  -13.8519  -26.6879   27.4150 C   0  0  0  0  0  0  0  0  0  0  0  0
  -14.1054  -27.9530   28.2367 C   0  0  0  0  0  0  0  0  0  0  0  0
  -12.8529  -28.5156   28.9188 C   0  0  0  0  0  0  0  0  0  0  0  0
  -11.7948  -27.4868   29.3266 C   0  0  0  0  0  0  0  0  0  0  0  0
  -11.6852  -26.3462   28.3531 C   0  0  0  0  0  0  0  0  0  0  0  0
  -12.8340  -23.2550   28.3600 C   0  0  0  0  0  0  0  0  0  0  0  0
  -13.0329  -22.6601   31.4126 H   0  0  0  0  0  0  0  0  0  0  0  0
  -11.3205  -20.6240   31.8396 H   0  0  0  0  0  0  0  0  0  0  0  0
  -10.2127  -22.7692   32.4763 H   0  0  0  0  0  0  0  0  0  0  0  0
  -11.4360  -25.2766   31.3184 H   0  0  0  0  0  0  0  0  0  0  0  0
  -10.1988  -24.4232   30.4435 H   0  0  0  0  0  0  0  0  0  0  0  0
   -8.5243  -24.8614   31.9325 H   0  0  0  0  0  0  0  0  0  0  0  0
   -9.5431  -26.2841   32.0595 H   0  0  0  0  0  0  0  0  0  0  0  0
  -11.0297  -25.0445   35.1355 H   0  0  0  0  0  0  0  0  0  0  0  0
  -11.3140  -25.9283   33.6456 H   0  0  0  0  0  0  0  0  0  0  0  0
  -12.7909  -24.1347   33.3415 H   0  0  0  0  0  0  0  0  0  0  0  0
  -11.8268  -22.9952   34.1842 H   0  0  0  0  0  0  0  0  0  0  0  0
   -9.9837  -23.5103   27.8241 H   0  0  0  0  0  0  0  0  0  0  0  0
  -11.0373  -22.2073   27.3387 H   0  0  0  0  0  0  0  0  0  0  0  0
  -11.1108  -24.9798   26.3491 H   0  0  0  0  0  0  0  0  0  0  0  0
  -11.9143  -23.5591   25.7566 H   0  0  0  0  0  0  0  0  0  0  0  0
  -13.8045  -24.3442   26.7567 H   0  0  0  0  0  0  0  0  0  0  0  0
  -13.4010  -26.9271   26.4479 H   0  0  0  0  0  0  0  0  0  0  0  0
  -14.8294  -26.2573   27.1849 H   0  0  0  0  0  0  0  0  0  0  0  0
  -14.8812  -27.7530   28.9828 H   0  0  0  0  0  0  0  0  0  0  0  0
  -14.5546  -28.7235   27.5985 H   0  0  0  0  0  0  0  0  0  0  0  0
  -13.1483  -29.1164   29.7876 H   0  0  0  0  0  0  0  0  0  0  0  0
  -12.3844  -29.2260   28.2378 H   0  0  0  0  0  0  0  0  0  0  0  0
  -11.9260  -27.1542   30.3530 H   0  0  0  0  0  0  0  0  0  0  0  0
  -10.8036  -27.9039   29.3950 H   0  0  0  0  0  0  0  0  0  0  0  0
  -11.2633  -26.7345   27.4173 H   0  0  0  0  0  0  0  0  0  0  0  0
  -10.9561  -25.6495   28.7661 H   0  0  0  0  0  0  0  0  0  0  0  0
  -13.6495  -23.2703   29.0563 H   0  0  0  0  0  0  0  0  0  0  0  0
  -12.9903  -22.3151   27.8571 H   0  0  0  0  0  0  0  0  0  0  0  0
  1  2  2  0
  2  3  1  0
  3  4  1  0
  3  5  1  0
  5  6  1  0
  6  7  1  0
  7  8  1  0
  8  9  1  0
  9 10  1  0
  2 11  1  0
 11 12  1  0
 12 13  1  0
 13 14  1  0
 14 15  1  0
 15 16  1  0
 16 17  1  0
 17 18  1  0
 18 19  1  0
 19 20  1  0
 14 21  1  0
 10  5  1  0
 21 11  1  0
 20 15  1  0
  3 22  1  0
  4 23  1  0
  5 24  1  0
  6 25  1  0
  6 26  1  0
  7 27  1  0
  7 28  1  0
  9 29  1  0
  9 30  1  0
 10 31  1  0
 10 32  1  0
 12 33  1  0
 12 34  1  0
 13 35  1  0
 13 36  1  0
 14 37  1  0
 16 38  1  0
 16 39  1  0
 17 40  1  0
 17 41  1  0
 18 42  1  0
 18 43  1  0
 19 44  1  0
 19 45  1  0
 20 46  1  0
 20 47  1  0
 21 48  1  0
 21 49  1  0
M  END
>  <Energy>  (342) 
149.72220391769395

>  <compound_id>  (342) 
5929

>  <target_id>  (342) 
1

>  <reference_id>  (342) 
46

>  <inspiration_ids>  (342) 
[3, 46]

>  <energy_score>  (342) 
35.64944892781773

>  <distance_score>  (342) 
3.5957767344773877

>  <path>  (342) 
/opt/xchem-fragalysis-2/maxwin/BulkDock/SCRATCH/511014/C5929-P46/C5929-P46.minimised.mol

>  <scratch_subdir>  (342) 
/opt/xchem-fragalysis-2/maxwin/BulkDock/SCRATCH/511014/C5929-P46

>  <fragmenstein_runtime>  (342) 
14.492905855178833

>  <fragmenstein_outcome>  (342) 
too moved

>  <fragmenstein_mode>  (342) 
expansion

>  <fragmenstein_error>  (342) 


$$$$
C5930-P3
     RDKit          3D

 45 47  0  0  0  0  0  0  0  0999 V2000
   -9.9123  -21.9403   27.7324 O   0  0  0  0  0  0  0  0  0  0  0  0
  -11.0386  -21.6450   27.8453 C   0  0  0  0  0  0  0  0  0  0  0  0
  -11.4436  -20.6918   28.9408 C   0  0  0  0  0  0  0  0  0  0  0  0
  -11.9235  -21.5169   30.0096 O   0  0  0  0  0  0  0  0  0  0  0  0
  -10.9602  -21.9336   30.8880 C   0  0  0  0  0  0  0  0  0  0  0  0
  -10.4362  -20.9277   31.7074 C   0  0  0  0  0  0  0  0  0  0  0  0
   -9.4516  -21.2298   32.6177 C   0  0  0  0  0  0  0  0  0  0  0  0
   -9.0071  -22.5299   32.7067 C   0  0  0  0  0  0  0  0  0  0  0  0
   -9.6429  -23.5582   31.9981 C   0  0  0  0  0  0  0  0  0  0  0  0
  -10.7088  -23.3124   31.1181 C   0  0  0  0  0  0  0  0  0  0  0  0
  -11.5775  -24.3423   30.6737 N   0  0  0  0  0  0  0  0  0  0  0  0
  -12.1579  -24.3240   29.3318 C   0  0  0  0  0  0  0  0  0  0  0  0
  -13.1284  -25.4790   29.0543 C   0  0  0  0  0  0  0  0  0  0  0  0
  -13.9496  -25.8303   30.2710 C   0  0  0  0  0  0  0  0  0  0  0  0
  -13.0305  -26.1980   31.4256 C   0  0  0  0  0  0  0  0  0  0  0  0
  -11.5987  -25.6546   31.2922 C   0  0  0  0  0  0  0  0  0  0  0  0
  -12.2551  -22.1442   27.1104 N   0  0  0  0  0  0  0  0  0  0  0  0
  -12.3988  -23.2177   26.1073 C   0  0  0  0  0  0  0  0  0  0  0  0
  -13.7612  -23.1909   25.5008 C   0  0  0  0  0  0  0  0  0  0  0  0
  -13.7404  -21.7713   25.0897 C   0  0  0  0  0  0  0  0  0  0  0  0
  -12.5327  -21.3102   25.8766 C   0  0  0  0  0  0  0  0  0  0  0  0
  -10.6098  -20.0423   29.2135 H   0  0  0  0  0  0  0  0  0  0  0  0
  -12.2284  -20.0346   28.5696 H   0  0  0  0  0  0  0  0  0  0  0  0
  -10.7901  -19.9037   31.6178 H   0  0  0  0  0  0  0  0  0  0  0  0
   -8.9866  -20.4536   33.2076 H   0  0  0  0  0  0  0  0  0  0  0  0
   -8.1638  -22.7552   33.3476 H   0  0  0  0  0  0  0  0  0  0  0  0
   -9.2841  -24.5645   32.1831 H   0  0  0  0  0  0  0  0  0  0  0  0
  -11.3495  -24.3650   28.5994 H   0  0  0  0  0  0  0  0  0  0  0  0
  -12.7329  -23.4297   29.1624 H   0  0  0  0  0  0  0  0  0  0  0  0
  -13.7870  -25.2188   28.2179 H   0  0  0  0  0  0  0  0  0  0  0  0
  -12.5601  -26.3607   28.7300 H   0  0  0  0  0  0  0  0  0  0  0  0
  -14.5997  -24.9926   30.5421 H   0  0  0  0  0  0  0  0  0  0  0  0
  -14.6181  -26.6701   30.0485 H   0  0  0  0  0  0  0  0  0  0  0  0
  -13.5060  -25.8919   32.3541 H   0  0  0  0  0  0  0  0  0  0  0  0
  -12.9621  -27.2918   31.4952 H   0  0  0  0  0  0  0  0  0  0  0  0
  -11.1312  -25.7022   32.2777 H   0  0  0  0  0  0  0  0  0  0  0  0
  -11.0610  -26.3309   30.6238 H   0  0  0  0  0  0  0  0  0  0  0  0
  -11.5359  -23.2423   25.4209 H   0  0  0  0  0  0  0  0  0  0  0  0
  -12.2890  -24.1625   26.6466 H   0  0  0  0  0  0  0  0  0  0  0  0
  -13.8831  -23.9002   24.6880 H   0  0  0  0  0  0  0  0  0  0  0  0
  -14.5381  -23.3789   26.2505 H   0  0  0  0  0  0  0  0  0  0  0  0
  -13.5568  -21.6421   24.0215 H   0  0  0  0  0  0  0  0  0  0  0  0
  -14.6766  -21.2780   25.3378 H   0  0  0  0  0  0  0  0  0  0  0  0
  -11.6562  -21.2423   25.2204 H   0  0  0  0  0  0  0  0  0  0  0  0
  -12.6795  -20.2866   26.2258 H   0  0  0  0  0  0  0  0  0  0  0  0
  1  2  2  0
  2  3  1  0
  3  4  1  0
  4  5  1  0
  5  6  2  0
  6  7  1  0
  7  8  2  0
  8  9  1  0
  9 10  2  0
 10 11  1  0
 11 12  1  0
 12 13  1  0
 13 14  1  0
 14 15  1  0
 15 16  1  0
  2 17  1  0
 17 18  1  0
 18 19  1  0
 19 20  1  0
 20 21  1  0
 10  5  1  0
 16 11  1  0
 21 17  1  0
  3 22  1  0
  3 23  1  0
  6 24  1  0
  7 25  1  0
  8 26  1  0
  9 27  1  0
 12 28  1  0
 12 29  1  0
 13 30  1  0
 13 31  1  0
 14 32  1  0
 14 33  1  0
 15 34  1  0
 15 35  1  0
 16 36  1  0
 16 37  1  0
 18 38  1  0
 18 39  1  0
 19 40  1  0
 19 41  1  0
 20 42  1  0
 20 43  1  0
 21 44  1  0
 21 45  1  0
M  END
>  <Energy>  (343) 
155.98134587906318

>  <compound_id>  (343) 
5930

>  <target_id>  (343) 
1

>  <reference_id>  (343) 
3

>  <inspiration_ids>  (343) 
[3, 46]

>  <energy_score>  (343) 
61.616272747892424

>  <distance_score>  (343) 
2.742683607613287

>  <path>  (343) 
/opt/xchem-fragalysis-2/maxwin/BulkDock/SCRATCH/511014/C5930-P3/C5930-P3.minimised.mol

>  <scratch_subdir>  (343) 
/opt/xchem-fragalysis-2/maxwin/BulkDock/SCRATCH/511014/C5930-P3

>  <fragmenstein_runtime>  (343) 
6.31306266784668

>  <fragmenstein_outcome>  (343) 
too moved

>  <fragmenstein_mode>  (343) 
expansion

>  <fragmenstein_error>  (343) 


$$$$
C5930-P46
     RDKit          3D

 45 47  0  0  0  0  0  0  0  0999 V2000
  -10.2783  -24.3967   29.0806 O   0  0  0  0  0  0  0  0  0  0  0  0
  -11.3185  -23.8809   28.7811 C   0  0  0  0  0  0  0  0  0  0  0  0
  -11.8137  -22.6066   29.5446 C   0  0  0  0  0  0  0  0  0  0  0  0
  -11.0310  -22.3207   30.7002 O   0  0  0  0  0  0  0  0  0  0  0  0
  -11.6748  -22.0291   31.8405 C   0  0  0  0  0  0  0  0  0  0  0  0
  -11.3527  -20.8500   32.4583 C   0  0  0  0  0  0  0  0  0  0  0  0
  -12.0928  -20.3456   33.5350 C   0  0  0  0  0  0  0  0  0  0  0  0
  -13.2087  -21.0218   33.9439 C   0  0  0  0  0  0  0  0  0  0  0  0
  -13.3257  -22.3245   33.5135 C   0  0  0  0  0  0  0  0  0  0  0  0
  -12.3853  -22.8887   32.6228 C   0  0  0  0  0  0  0  0  0  0  0  0
  -12.0670  -24.2219   32.7680 N   0  0  0  0  0  0  0  0  0  0  0  0
  -11.5155  -25.1223   31.7751 C   0  0  0  0  0  0  0  0  0  0  0  0
  -10.0301  -25.2273   31.8237 C   0  0  0  0  0  0  0  0  0  0  0  0
   -9.5412  -24.9253   33.2020 C   0  0  0  0  0  0  0  0  0  0  0  0
  -10.5348  -25.3168   34.2813 C   0  0  0  0  0  0  0  0  0  0  0  0
  -11.8414  -24.5780   34.1463 C   0  0  0  0  0  0  0  0  0  0  0  0
  -12.2944  -24.2689   27.8372 N   0  0  0  0  0  0  0  0  0  0  0  0
  -12.4020  -25.5038   26.9853 C   0  0  0  0  0  0  0  0  0  0  0  0
  -13.3019  -25.3532   25.7886 C   0  0  0  0  0  0  0  0  0  0  0  0
  -12.9761  -23.9533   25.4379 C   0  0  0  0  0  0  0  0  0  0  0  0
  -12.0061  -23.6509   26.5277 C   0  0  0  0  0  0  0  0  0  0  0  0
  -11.6849  -21.7603   28.8636 H   0  0  0  0  0  0  0  0  0  0  0  0
  -12.8764  -22.6799   29.7661 H   0  0  0  0  0  0  0  0  0  0  0  0
  -10.4927  -20.3058   32.1015 H   0  0  0  0  0  0  0  0  0  0  0  0
  -11.8368  -19.3860   33.9777 H   0  0  0  0  0  0  0  0  0  0  0  0
  -13.8828  -20.5968   34.6733 H   0  0  0  0  0  0  0  0  0  0  0  0
  -14.0563  -22.9765   33.9869 H   0  0  0  0  0  0  0  0  0  0  0  0
  -11.8839  -24.9211   30.7818 H   0  0  0  0  0  0  0  0  0  0  0  0
  -11.8649  -26.1346   32.0069 H   0  0  0  0  0  0  0  0  0  0  0  0
   -9.5192  -24.5557   31.1483 H   0  0  0  0  0  0  0  0  0  0  0  0
   -9.7492  -26.2376   31.5130 H   0  0  0  0  0  0  0  0  0  0  0  0
   -8.6184  -25.4774   33.3130 H   0  0  0  0  0  0  0  0  0  0  0  0
   -9.3114  -23.8567   33.2607 H   0  0  0  0  0  0  0  0  0  0  0  0
  -10.0955  -25.1292   35.2580 H   0  0  0  0  0  0  0  0  0  0  0  0
  -10.7499  -26.3812   34.2392 H   0  0  0  0  0  0  0  0  0  0  0  0
  -12.6805  -25.1668   34.4885 H   0  0  0  0  0  0  0  0  0  0  0  0
  -11.8257  -23.7186   34.8172 H   0  0  0  0  0  0  0  0  0  0  0  0
  -11.4015  -25.8942   26.7384 H   0  0  0  0  0  0  0  0  0  0  0  0
  -12.8167  -26.2735   27.6494 H   0  0  0  0  0  0  0  0  0  0  0  0
  -13.0832  -26.0856   25.0098 H   0  0  0  0  0  0  0  0  0  0  0  0
  -14.3549  -25.4546   26.0708 H   0  0  0  0  0  0  0  0  0  0  0  0
  -12.4491  -23.7240   24.5217 H   0  0  0  0  0  0  0  0  0  0  0  0
  -13.8867  -23.3788   25.3753 H   0  0  0  0  0  0  0  0  0  0  0  0
  -10.9746  -23.9014   26.2229 H   0  0  0  0  0  0  0  0  0  0  0  0
  -11.9432  -22.5741   26.6982 H   0  0  0  0  0  0  0  0  0  0  0  0
  1  2  2  0
  2  3  1  0
  3  4  1  0
  4  5  1  0
  5  6  2  0
  6  7  1  0
  7  8  2  0
  8  9  1  0
  9 10  2  0
 10 11  1  0
 11 12  1  0
 12 13  1  0
 13 14  1  0
 14 15  1  0
 15 16  1  0
  2 17  1  0
 17 18  1  0
 18 19  1  0
 19 20  1  0
 20 21  1  0
 10  5  1  0
 16 11  1  0
 21 17  1  0
  3 22  1  0
  3 23  1  0
  6 24  1  0
  7 25  1  0
  8 26  1  0
  9 27  1  0
 12 28  1  0
 12 29  1  0
 13 30  1  0
 13 31  1  0
 14 32  1  0
 14 33  1  0
 15 34  1  0
 15 35  1  0
 16 36  1  0
 16 37  1  0
 18 38  1  0
 18 39  1  0
 19 40  1  0
 19 41  1  0
 20 42  1  0
 20 43  1  0
 21 44  1  0
 21 45  1  0
M  END
>  <Energy>  (344) 
167.49573017431504

>  <compound_id>  (344) 
5930

>  <target_id>  (344) 
1

>  <reference_id>  (344) 
46

>  <inspiration_ids>  (344) 
[3, 46]

>  <energy_score>  (344) 
73.07283189142623

>  <distance_score>  (344) 
3.4041716789424044

>  <path>  (344) 
/opt/xchem-fragalysis-2/maxwin/BulkDock/SCRATCH/511014/C5930-P46/C5930-P46.minimised.mol

>  <scratch_subdir>  (344) 
/opt/xchem-fragalysis-2/maxwin/BulkDock/SCRATCH/511014/C5930-P46

>  <fragmenstein_runtime>  (344) 
12.201635837554932

>  <fragmenstein_outcome>  (344) 
too moved

>  <fragmenstein_mode>  (344) 
expansion

>  <fragmenstein_error>  (344) 


$$$$
C5931-P3
     RDKit          3D

 45 47  0  0  0  0  0  0  0  0999 V2000
  -11.9112  -20.4119   26.6693 O   0  0  0  0  0  0  0  0  0  0  0  0
  -11.6583  -21.2429   27.4597 C   0  0  0  0  0  0  0  0  0  0  0  0
  -11.1471  -20.9027   28.8785 C   0  0  0  0  0  0  0  0  0  0  0  0
  -11.1037  -22.0468   29.7314 O   0  0  0  0  0  0  0  0  0  0  0  0
  -10.5236  -21.8529   30.9412 C   0  0  0  0  0  0  0  0  0  0  0  0
   -9.5314  -22.7552   31.3059 C   0  0  0  0  0  0  0  0  0  0  0  0
   -8.9707  -22.6778   32.5659 C   0  0  0  0  0  0  0  0  0  0  0  0
   -9.4653  -21.7634   33.4848 C   0  0  0  0  0  0  0  0  0  0  0  0
  -10.4728  -20.8731   33.1221 C   0  0  0  0  0  0  0  0  0  0  0  0
  -10.9807  -20.8898   31.8320 C   0  0  0  0  0  0  0  0  0  0  0  0
  -11.6459  -22.7467   27.3259 N   0  0  0  0  0  0  0  0  0  0  0  0
  -11.8478  -23.6055   26.1496 C   0  0  0  0  0  0  0  0  0  0  0  0
  -12.0256  -25.0474   26.5903 C   0  0  0  0  0  0  0  0  0  0  0  0
  -13.1897  -24.8109   27.4834 C   0  0  0  0  0  0  0  0  0  0  0  0
  -13.3469  -25.6401   28.7010 N   0  0  0  0  0  0  0  0  0  0  0  0
  -14.7021  -25.4466   29.2725 C   0  0  0  0  0  0  0  0  0  0  0  0
  -14.9714  -26.4191   30.4081 C   0  0  0  0  0  0  0  0  0  0  0  0
  -13.9653  -26.2329   31.5214 C   0  0  0  0  0  0  0  0  0  0  0  0
  -12.5381  -26.2511   30.9920 C   0  0  0  0  0  0  0  0  0  0  0  0
  -12.3106  -25.4140   29.7301 C   0  0  0  0  0  0  0  0  0  0  0  0
  -12.9741  -23.3285   27.6615 C   0  0  0  0  0  0  0  0  0  0  0  0
  -11.7911  -20.1241   29.2901 H   0  0  0  0  0  0  0  0  0  0  0  0
  -10.1400  -20.5083   28.7323 H   0  0  0  0  0  0  0  0  0  0  0  0
   -9.1874  -23.5120   30.6103 H   0  0  0  0  0  0  0  0  0  0  0  0
   -8.1629  -23.3529   32.8232 H   0  0  0  0  0  0  0  0  0  0  0  0
   -9.0636  -21.7751   34.4894 H   0  0  0  0  0  0  0  0  0  0  0  0
  -10.8942  -20.1857   33.8514 H   0  0  0  0  0  0  0  0  0  0  0  0
  -11.7847  -20.2064   31.5754 H   0  0  0  0  0  0  0  0  0  0  0  0
  -12.6137  -23.2034   25.4617 H   0  0  0  0  0  0  0  0  0  0  0  0
  -10.9063  -23.5186   25.5913 H   0  0  0  0  0  0  0  0  0  0  0  0
  -12.2479  -25.7548   25.7897 H   0  0  0  0  0  0  0  0  0  0  0  0
  -11.1467  -25.4099   27.1259 H   0  0  0  0  0  0  0  0  0  0  0  0
  -14.0937  -24.9568   26.8744 H   0  0  0  0  0  0  0  0  0  0  0  0
  -14.8469  -24.4176   29.6168 H   0  0  0  0  0  0  0  0  0  0  0  0
  -15.4550  -25.6338   28.4969 H   0  0  0  0  0  0  0  0  0  0  0  0
  -14.9231  -27.4495   30.0337 H   0  0  0  0  0  0  0  0  0  0  0  0
  -15.9862  -26.2700   30.7949 H   0  0  0  0  0  0  0  0  0  0  0  0
  -14.0872  -27.0252   32.2695 H   0  0  0  0  0  0  0  0  0  0  0  0
  -14.1951  -25.3018   32.0338 H   0  0  0  0  0  0  0  0  0  0  0  0
  -12.2781  -27.2925   30.7587 H   0  0  0  0  0  0  0  0  0  0  0  0
  -11.8453  -25.9328   31.7784 H   0  0  0  0  0  0  0  0  0  0  0  0
  -12.2287  -24.3715   30.0210 H   0  0  0  0  0  0  0  0  0  0  0  0
  -11.3320  -25.6942   29.3267 H   0  0  0  0  0  0  0  0  0  0  0  0
  -13.7862  -22.7389   27.2024 H   0  0  0  0  0  0  0  0  0  0  0  0
  -13.0450  -23.1324   28.7157 H   0  0  0  0  0  0  0  0  0  0  0  0
  1  2  2  0
  2  3  1  0
  3  4  1  0
  4  5  1  0
  5  6  2  0
  6  7  1  0
  7  8  2  0
  8  9  1  0
  9 10  2  0
  2 11  1  0
 11 12  1  0
 12 13  1  0
 13 14  1  0
 14 15  1  0
 15 16  1  0
 16 17  1  0
 17 18  1  0
 18 19  1  0
 19 20  1  0
 14 21  1  0
 10  5  1  0
 21 11  1  0
 20 15  1  0
  3 22  1  0
  3 23  1  0
  6 24  1  0
  7 25  1  0
  8 26  1  0
  9 27  1  0
 10 28  1  0
 12 29  1  0
 12 30  1  0
 13 31  1  0
 13 32  1  0
 14 33  1  0
 16 34  1  0
 16 35  1  0
 17 36  1  0
 17 37  1  0
 18 38  1  0
 18 39  1  0
 19 40  1  0
 19 41  1  0
 20 42  1  0
 20 43  1  0
 21 44  1  0
 21 45  1  0
M  END
>  <Energy>  (345) 
138.729886630626

>  <compound_id>  (345) 
5931

>  <target_id>  (345) 
1

>  <reference_id>  (345) 
3

>  <inspiration_ids>  (345) 
[3, 46]

>  <energy_score>  (345) 
40.571586504208824

>  <distance_score>  (345) 
2.5924120675817153

>  <path>  (345) 
/opt/xchem-fragalysis-2/maxwin/BulkDock/SCRATCH/511014/C5931-P3/C5931-P3.minimised.mol

>  <scratch_subdir>  (345) 
/opt/xchem-fragalysis-2/maxwin/BulkDock/SCRATCH/511014/C5931-P3

>  <fragmenstein_runtime>  (345) 
9.4029700756073

>  <fragmenstein_outcome>  (345) 
too moved

>  <fragmenstein_mode>  (345) 
expansion

>  <fragmenstein_error>  (345) 


$$$$
C5931-P46
     RDKit          3D

 45 47  0  0  0  0  0  0  0  0999 V2000
  -11.3350  -22.0659   27.7217 O   0  0  0  0  0  0  0  0  0  0  0  0
  -11.4225  -23.1856   28.0363 C   0  0  0  0  0  0  0  0  0  0  0  0
  -11.2326  -23.7088   29.4355 C   0  0  0  0  0  0  0  0  0  0  0  0
  -11.1939  -22.5565   30.2586 O   0  0  0  0  0  0  0  0  0  0  0  0
  -11.3036  -22.8510   31.5739 C   0  0  0  0  0  0  0  0  0  0  0  0
  -10.9251  -24.0378   32.1809 C   0  0  0  0  0  0  0  0  0  0  0  0
  -11.3710  -24.2647   33.4604 C   0  0  0  0  0  0  0  0  0  0  0  0
  -12.1475  -23.2942   34.0923 C   0  0  0  0  0  0  0  0  0  0  0  0
  -12.3929  -22.0554   33.5357 C   0  0  0  0  0  0  0  0  0  0  0  0
  -11.9257  -21.8379   32.2749 C   0  0  0  0  0  0  0  0  0  0  0  0
  -11.7655  -24.3885   27.2305 N   0  0  0  0  0  0  0  0  0  0  0  0
  -12.0018  -24.5434   25.7626 C   0  0  0  0  0  0  0  0  0  0  0  0
  -12.5031  -25.9440   25.5604 C   0  0  0  0  0  0  0  0  0  0  0  0
  -13.6459  -25.8860   26.5172 C   0  0  0  0  0  0  0  0  0  0  0  0
  -13.8590  -27.0740   27.3546 N   0  0  0  0  0  0  0  0  0  0  0  0
  -15.1791  -27.0427   27.9952 C   0  0  0  0  0  0  0  0  0  0  0  0
  -15.5464  -28.4005   28.5336 C   0  0  0  0  0  0  0  0  0  0  0  0
  -14.4951  -29.0093   29.4267 C   0  0  0  0  0  0  0  0  0  0  0  0
  -13.0501  -28.6213   29.1100 C   0  0  0  0  0  0  0  0  0  0  0  0
  -12.7510  -27.3919   28.2517 C   0  0  0  0  0  0  0  0  0  0  0  0
  -13.2250  -24.6383   27.2342 C   0  0  0  0  0  0  0  0  0  0  0  0
  -12.0658  -24.3529   29.7193 H   0  0  0  0  0  0  0  0  0  0  0  0
  -10.2990  -24.2825   29.4583 H   0  0  0  0  0  0  0  0  0  0  0  0
  -10.3691  -24.8146   31.6707 H   0  0  0  0  0  0  0  0  0  0  0  0
  -11.1524  -25.2014   33.9632 H   0  0  0  0  0  0  0  0  0  0  0  0
  -12.5056  -23.4891   35.0827 H   0  0  0  0  0  0  0  0  0  0  0  0
  -12.9299  -21.2897   34.0809 H   0  0  0  0  0  0  0  0  0  0  0  0
  -12.0713  -20.9002   31.7905 H   0  0  0  0  0  0  0  0  0  0  0  0
  -11.0253  -24.4167   25.2900 H   0  0  0  0  0  0  0  0  0  0  0  0
  -12.5882  -23.7297   25.2997 H   0  0  0  0  0  0  0  0  0  0  0  0
  -12.8412  -26.2269   24.5701 H   0  0  0  0  0  0  0  0  0  0  0  0
  -11.7073  -26.6378   25.8397 H   0  0  0  0  0  0  0  0  0  0  0  0
  -14.5623  -25.6857   25.9456 H   0  0  0  0  0  0  0  0  0  0  0  0
  -15.2674  -26.3012   28.7803 H   0  0  0  0  0  0  0  0  0  0  0  0
  -15.9422  -26.8038   27.2434 H   0  0  0  0  0  0  0  0  0  0  0  0
  -15.7085  -29.0783   27.6838 H   0  0  0  0  0  0  0  0  0  0  0  0
  -16.5060  -28.3524   29.0621 H   0  0  0  0  0  0  0  0  0  0  0  0
  -14.5727  -30.1031   29.3372 H   0  0  0  0  0  0  0  0  0  0  0  0
  -14.7654  -28.8584   30.4720 H   0  0  0  0  0  0  0  0  0  0  0  0
  -12.6583  -29.4801   28.5507 H   0  0  0  0  0  0  0  0  0  0  0  0
  -12.4693  -28.5791   30.0374 H   0  0  0  0  0  0  0  0  0  0  0  0
  -12.3667  -26.5653   28.8461 H   0  0  0  0  0  0  0  0  0  0  0  0
  -11.8652  -27.6496   27.6628 H   0  0  0  0  0  0  0  0  0  0  0  0
  -13.7236  -23.7532   26.8735 H   0  0  0  0  0  0  0  0  0  0  0  0
  -13.5564  -24.6577   28.2756 H   0  0  0  0  0  0  0  0  0  0  0  0
  1  2  2  0
  2  3  1  0
  3  4  1  0
  4  5  1  0
  5  6  2  0
  6  7  1  0
  7  8  2  0
  8  9  1  0
  9 10  2  0
  2 11  1  0
 11 12  1  0
 12 13  1  0
 13 14  1  0
 14 15  1  0
 15 16  1  0
 16 17  1  0
 17 18  1  0
 18 19  1  0
 19 20  1  0
 14 21  1  0
 10  5  1  0
 21 11  1  0
 20 15  1  0
  3 22  1  0
  3 23  1  0
  6 24  1  0
  7 25  1  0
  8 26  1  0
  9 27  1  0
 10 28  1  0
 12 29  1  0
 12 30  1  0
 13 31  1  0
 13 32  1  0
 14 33  1  0
 16 34  1  0
 16 35  1  0
 17 36  1  0
 17 37  1  0
 18 38  1  0
 18 39  1  0
 19 40  1  0
 19 41  1  0
 20 42  1  0
 20 43  1  0
 21 44  1  0
 21 45  1  0
M  END
>  <Energy>  (346) 
152.127843261762

>  <compound_id>  (346) 
5931

>  <target_id>  (346) 
1

>  <reference_id>  (346) 
46

>  <inspiration_ids>  (346) 
[3, 46]

>  <energy_score>  (346) 
53.96954313534707

>  <distance_score>  (346) 
3.8107782525285785

>  <path>  (346) 
/opt/xchem-fragalysis-2/maxwin/BulkDock/SCRATCH/511014/C5931-P46/C5931-P46.minimised.mol

>  <scratch_subdir>  (346) 
/opt/xchem-fragalysis-2/maxwin/BulkDock/SCRATCH/511014/C5931-P46

>  <fragmenstein_runtime>  (346) 
10.11772871017456

>  <fragmenstein_outcome>  (346) 
too moved

>  <fragmenstein_mode>  (346) 
expansion

>  <fragmenstein_error>  (346) 


$$$$
C5932-P3
     RDKit          3D

 42 44  0  0  0  0  0  0  0  0999 V2000
  -11.9708  -21.7139   26.4014 O   0  0  0  0  0  0  0  0  0  0  0  0
  -11.6199  -22.3605   27.3629 C   0  0  0  0  0  0  0  0  0  0  0  0
  -10.9021  -21.5383   28.4769 C   0  0  0  0  0  0  0  0  0  0  0  0
  -11.5004  -20.2328   28.4914 O   0  0  0  0  0  0  0  0  0  0  0  0
  -10.7172  -22.0356   29.8821 C   0  0  0  0  0  0  0  0  0  0  0  0
  -11.0029  -21.3453   31.0466 C   0  0  0  0  0  0  0  0  0  0  0  0
  -10.3882  -22.0244   32.0585 N   0  0  0  0  0  0  0  0  0  0  0  0
   -9.7530  -23.0928   31.4993 C   0  0  0  0  0  0  0  0  0  0  0  0
   -9.9545  -23.1426   30.1999 N   0  0  0  0  0  0  0  0  0  0  0  0
  -11.6709  -23.7571   27.6000 N   0  0  0  0  0  0  0  0  0  0  0  0
  -12.0644  -24.8775   26.7129 C   0  0  0  0  0  0  0  0  0  0  0  0
  -12.2836  -26.1600   27.4614 C   0  0  0  0  0  0  0  0  0  0  0  0
  -13.2792  -25.6158   28.4247 C   0  0  0  0  0  0  0  0  0  0  0  0
  -13.3090  -26.1440   29.7889 N   0  0  0  0  0  0  0  0  0  0  0  0
  -12.0460  -26.0231   30.5205 C   0  0  0  0  0  0  0  0  0  0  0  0
  -12.2946  -26.4080   31.9733 C   0  0  0  0  0  0  0  0  0  0  0  0
  -12.7532  -27.8454   32.1046 C   0  0  0  0  0  0  0  0  0  0  0  0
  -14.0031  -28.0296   31.2573 C   0  0  0  0  0  0  0  0  0  0  0  0
  -13.7897  -27.5325   29.8237 C   0  0  0  0  0  0  0  0  0  0  0  0
  -12.9671  -24.1248   28.2692 C   0  0  0  0  0  0  0  0  0  0  0  0
   -9.8849  -21.4002   28.1044 H   0  0  0  0  0  0  0  0  0  0  0  0
  -11.4693  -19.9172   27.5686 H   0  0  0  0  0  0  0  0  0  0  0  0
  -11.5229  -20.4101   31.2199 H   0  0  0  0  0  0  0  0  0  0  0  0
  -10.4029  -21.7730   33.0387 H   0  0  0  0  0  0  0  0  0  0  0  0
   -9.1628  -23.7906   32.0827 H   0  0  0  0  0  0  0  0  0  0  0  0
  -12.8927  -24.5928   26.0409 H   0  0  0  0  0  0  0  0  0  0  0  0
  -11.2066  -25.0137   26.0443 H   0  0  0  0  0  0  0  0  0  0  0  0
  -11.3513  -26.5018   27.9191 H   0  0  0  0  0  0  0  0  0  0  0  0
  -12.6848  -26.9597   26.8340 H   0  0  0  0  0  0  0  0  0  0  0  0
  -14.2909  -25.7504   28.0144 H   0  0  0  0  0  0  0  0  0  0  0  0
  -11.2712  -26.6624   30.0892 H   0  0  0  0  0  0  0  0  0  0  0  0
  -11.6807  -24.9981   30.5015 H   0  0  0  0  0  0  0  0  0  0  0  0
  -13.1059  -25.7852   32.3422 H   0  0  0  0  0  0  0  0  0  0  0  0
  -11.4119  -26.2250   32.5899 H   0  0  0  0  0  0  0  0  0  0  0  0
  -11.9651  -28.5283   31.7668 H   0  0  0  0  0  0  0  0  0  0  0  0
  -12.9693  -28.0841   33.1516 H   0  0  0  0  0  0  0  0  0  0  0  0
  -14.8388  -27.4820   31.7117 H   0  0  0  0  0  0  0  0  0  0  0  0
  -14.2881  -29.0877   31.2429 H   0  0  0  0  0  0  0  0  0  0  0  0
  -14.7503  -27.6098   29.2994 H   0  0  0  0  0  0  0  0  0  0  0  0
  -13.0871  -28.2000   29.3077 H   0  0  0  0  0  0  0  0  0  0  0  0
  -13.8035  -23.6022   27.7728 H   0  0  0  0  0  0  0  0  0  0  0  0
  -12.9095  -23.6710   29.2560 H   0  0  0  0  0  0  0  0  0  0  0  0
  1  2  2  0
  2  3  1  0
  3  4  1  0
  3  5  1  0
  5  6  2  0
  6  7  1  0
  7  8  1  0
  8  9  2  0
  2 10  1  0
 10 11  1  0
 11 12  1  0
 12 13  1  0
 13 14  1  0
 14 15  1  0
 15 16  1  0
 16 17  1  0
 17 18  1  0
 18 19  1  0
 13 20  1  0
  9  5  1  0
 20 10  1  0
 19 14  1  0
  3 21  1  0
  4 22  1  0
  6 23  1  0
  7 24  1  0
  8 25  1  0
 11 26  1  0
 11 27  1  0
 12 28  1  0
 12 29  1  0
 13 30  1  0
 15 31  1  0
 15 32  1  0
 16 33  1  0
 16 34  1  0
 17 35  1  0
 17 36  1  0
 18 37  1  0
 18 38  1  0
 19 39  1  0
 19 40  1  0
 20 41  1  0
 20 42  1  0
M  END
>  <Energy>  (347) 
148.35646186655907

>  <compound_id>  (347) 
5932

>  <target_id>  (347) 
1

>  <reference_id>  (347) 
3

>  <inspiration_ids>  (347) 
[3, 46]

>  <energy_score>  (347) 
24.542722614212693

>  <distance_score>  (347) 
4.637528086753571

>  <path>  (347) 
/opt/xchem-fragalysis-2/maxwin/BulkDock/SCRATCH/511014/C5932-P3/C5932-P3.minimised.mol

>  <scratch_subdir>  (347) 
/opt/xchem-fragalysis-2/maxwin/BulkDock/SCRATCH/511014/C5932-P3

>  <fragmenstein_runtime>  (347) 
12.17916989326477

>  <fragmenstein_outcome>  (347) 
too moved

>  <fragmenstein_mode>  (347) 
expansion

>  <fragmenstein_error>  (347) 


$$$$
C5932-P46
     RDKit          3D

 42 44  0  0  0  0  0  0  0  0999 V2000
   -9.3375  -24.6240   29.3698 O   0  0  0  0  0  0  0  0  0  0  0  0
  -10.3266  -25.2687   29.1549 C   0  0  0  0  0  0  0  0  0  0  0  0
  -10.4699  -26.5464   30.0219 C   0  0  0  0  0  0  0  0  0  0  0  0
  -11.6526  -27.3137   29.8856 O   0  0  0  0  0  0  0  0  0  0  0  0
  -10.3787  -25.9811   31.4347 C   0  0  0  0  0  0  0  0  0  0  0  0
   -9.3511  -25.3137   32.0604 C   0  0  0  0  0  0  0  0  0  0  0  0
   -9.8448  -24.8858   33.2428 N   0  0  0  0  0  0  0  0  0  0  0  0
  -11.1499  -25.2228   33.2885 C   0  0  0  0  0  0  0  0  0  0  0  0
  -11.4991  -25.9095   32.2253 N   0  0  0  0  0  0  0  0  0  0  0  0
  -11.4236  -25.0053   28.3138 N   0  0  0  0  0  0  0  0  0  0  0  0
  -11.6616  -23.9016   27.3407 C   0  0  0  0  0  0  0  0  0  0  0  0
  -11.5558  -22.5468   28.0543 C   0  0  0  0  0  0  0  0  0  0  0  0
  -12.6540  -22.7731   29.0360 C   0  0  0  0  0  0  0  0  0  0  0  0
  -12.8316  -21.9704   30.2936 N   0  0  0  0  0  0  0  0  0  0  0  0
  -14.1655  -21.8713   31.0195 C   0  0  0  0  0  0  0  0  0  0  0  0
  -14.2498  -21.7564   32.5570 C   0  0  0  0  0  0  0  0  0  0  0  0
  -13.0108  -22.1985   33.2866 C   0  0  0  0  0  0  0  0  0  0  0  0
  -11.7642  -21.7203   32.5976 C   0  0  0  0  0  0  0  0  0  0  0  0
  -11.6641  -22.1267   31.1495 C   0  0  0  0  0  0  0  0  0  0  0  0
  -12.4828  -24.2818   29.0605 C   0  0  0  0  0  0  0  0  0  0  0  0
   -9.6312  -27.1964   29.7926 H   0  0  0  0  0  0  0  0  0  0  0  0
  -12.1667  -26.9828   30.6533 H   0  0  0  0  0  0  0  0  0  0  0  0
   -8.3366  -25.1143   31.7839 H   0  0  0  0  0  0  0  0  0  0  0  0
   -9.3166  -24.4326   33.9623 H   0  0  0  0  0  0  0  0  0  0  0  0
  -11.7885  -24.9572   34.1200 H   0  0  0  0  0  0  0  0  0  0  0  0
  -12.5892  -24.0563   26.7649 H   0  0  0  0  0  0  0  0  0  0  0  0
  -10.8464  -23.9754   26.6147 H   0  0  0  0  0  0  0  0  0  0  0  0
  -11.7225  -21.7233   27.3731 H   0  0  0  0  0  0  0  0  0  0  0  0
  -10.5808  -22.4169   28.5248 H   0  0  0  0  0  0  0  0  0  0  0  0
  -13.5603  -22.6839   28.4676 H   0  0  0  0  0  0  0  0  0  0  0  0
  -14.7641  -21.0077   30.7133 H   0  0  0  0  0  0  0  0  0  0  0  0
  -14.9568  -22.4942   30.6117 H   0  0  0  0  0  0  0  0  0  0  0  0
  -14.4733  -20.7241   32.8426 H   0  0  0  0  0  0  0  0  0  0  0  0
  -15.1100  -22.3288   32.9270 H   0  0  0  0  0  0  0  0  0  0  0  0
  -13.0208  -21.7923   34.2967 H   0  0  0  0  0  0  0  0  0  0  0  0
  -13.0102  -23.2831   33.3836 H   0  0  0  0  0  0  0  0  0  0  0  0
  -11.6682  -20.6384   32.7075 H   0  0  0  0  0  0  0  0  0  0  0  0
  -10.9100  -22.1776   33.0929 H   0  0  0  0  0  0  0  0  0  0  0  0
  -11.3212  -23.1608   31.1493 H   0  0  0  0  0  0  0  0  0  0  0  0
  -10.8628  -21.5284   30.7097 H   0  0  0  0  0  0  0  0  0  0  0  0
  -12.3481  -24.5836   30.0936 H   0  0  0  0  0  0  0  0  0  0  0  0
  -13.4261  -24.7130   28.6919 H   0  0  0  0  0  0  0  0  0  0  0  0
  1  2  2  0
  2  3  1  0
  3  4  1  0
  3  5  1  0
  5  6  2  0
  6  7  1  0
  7  8  1  0
  8  9  2  0
  2 10  1  0
 10 11  1  0
 11 12  1  0
 12 13  1  0
 13 14  1  0
 14 15  1  0
 15 16  1  0
 16 17  1  0
 17 18  1  0
 18 19  1  0
 13 20  1  0
  9  5  1  0
 20 10  1  0
 19 14  1  0
  3 21  1  0
  4 22  1  0
  6 23  1  0
  7 24  1  0
  8 25  1  0
 11 26  1  0
 11 27  1  0
 12 28  1  0
 12 29  1  0
 13 30  1  0
 15 31  1  0
 15 32  1  0
 16 33  1  0
 16 34  1  0
 17 35  1  0
 17 36  1  0
 18 37  1  0
 18 38  1  0
 19 39  1  0
 19 40  1  0
 20 41  1  0
 20 42  1  0
M  END
>  <Energy>  (348) 
183.67809955747444

>  <compound_id>  (348) 
5932

>  <target_id>  (348) 
1

>  <reference_id>  (348) 
46

>  <inspiration_ids>  (348) 
[3, 46]

>  <energy_score>  (348) 
59.86436030513039

>  <distance_score>  (348) 
3.023552925485954

>  <path>  (348) 
/opt/xchem-fragalysis-2/maxwin/BulkDock/SCRATCH/511014/C5932-P46/C5932-P46.minimised.mol

>  <scratch_subdir>  (348) 
/opt/xchem-fragalysis-2/maxwin/BulkDock/SCRATCH/511014/C5932-P46

>  <fragmenstein_runtime>  (348) 
9.63061261177063

>  <fragmenstein_outcome>  (348) 
too moved

>  <fragmenstein_mode>  (348) 
expansion

>  <fragmenstein_error>  (348) 


$$$$
C5941-P3
     RDKit          3D

 49 50  0  0  0  0  0  0  0  0999 V2000
  -12.3828  -26.2866   30.5375 C   0  0  0  0  0  0  0  0  0  0  0  0
  -13.0624  -25.9032   29.2246 C   0  0  0  0  0  0  0  0  0  0  0  0
  -14.1109  -26.9301   28.8545 C   0  0  0  0  0  0  0  0  0  0  0  0
  -12.0298  -25.8665   28.2108 O   0  0  0  0  0  0  0  0  0  0  0  0
  -12.1974  -25.2729   26.9858 C   0  0  0  0  0  0  0  0  0  0  0  0
  -11.5345  -25.7133   26.0853 O   0  0  0  0  0  0  0  0  0  0  0  0
  -13.2139  -24.2837   26.9841 N   0  0  0  0  0  0  0  0  0  0  0  0
  -13.8713  -23.5442   25.8398 C   0  0  0  0  0  0  0  0  0  0  0  0
  -13.0552  -22.4906   25.0988 C   0  0  0  0  0  0  0  0  0  0  0  0
  -11.9070  -22.3371   26.0259 C   0  0  0  0  0  0  0  0  0  0  0  0
  -12.6038  -22.8828   27.2363 C   0  0  0  0  0  0  0  0  0  0  0  0
  -11.8622  -22.6497   28.5718 C   0  0  0  0  0  0  0  0  0  0  0  0
  -11.7699  -23.4806   29.4577 O   0  0  0  0  0  0  0  0  0  0  0  0
  -11.4043  -21.3792   28.6998 O   0  0  0  0  0  0  0  0  0  0  0  0
  -11.4363  -20.8420   30.0244 C   0  0  0  0  0  0  0  0  0  0  0  0
  -10.3111  -20.9624   31.0379 C   0  0  0  0  0  0  0  0  0  0  0  0
  -10.1024  -20.0075   31.7498 O   0  0  0  0  0  0  0  0  0  0  0  0
   -9.6008  -22.2018   30.9072 N   0  0  0  0  0  0  0  0  0  0  0  0
  -10.1509  -23.1970   31.8259 C   0  0  0  0  0  0  0  0  0  0  0  0
  -10.0507  -22.8093   33.3216 C   0  0  0  0  0  0  0  0  0  0  0  0
   -8.9835  -21.8693   33.7485 C   0  0  0  0  0  0  0  0  0  0  0  0
   -7.8763  -21.9629   32.7773 C   0  0  0  0  0  0  0  0  0  0  0  0
   -8.3188  -22.6664   31.5231 C   0  0  0  0  0  0  0  0  0  0  0  0
  -13.0945  -26.2786   31.3687 H   0  0  0  0  0  0  0  0  0  0  0  0
  -11.9436  -27.2881   30.4673 H   0  0  0  0  0  0  0  0  0  0  0  0
  -11.5616  -25.6080   30.7727 H   0  0  0  0  0  0  0  0  0  0  0  0
  -13.5529  -24.9334   29.3415 H   0  0  0  0  0  0  0  0  0  0  0  0
  -14.6112  -26.6590   27.9189 H   0  0  0  0  0  0  0  0  0  0  0  0
  -13.6580  -27.9143   28.6899 H   0  0  0  0  0  0  0  0  0  0  0  0
  -14.8730  -27.0219   29.6347 H   0  0  0  0  0  0  0  0  0  0  0  0
  -14.8353  -23.1453   26.1925 H   0  0  0  0  0  0  0  0  0  0  0  0
  -14.1391  -24.3328   25.1264 H   0  0  0  0  0  0  0  0  0  0  0  0
  -12.7670  -22.7536   24.0833 H   0  0  0  0  0  0  0  0  0  0  0  0
  -13.6381  -21.5647   25.0181 H   0  0  0  0  0  0  0  0  0  0  0  0
  -11.6337  -21.2906   26.1443 H   0  0  0  0  0  0  0  0  0  0  0  0
  -11.0328  -22.9262   25.7354 H   0  0  0  0  0  0  0  0  0  0  0  0
  -13.4610  -22.2239   27.4468 H   0  0  0  0  0  0  0  0  0  0  0  0
  -11.5393  -19.7620   29.8534 H   0  0  0  0  0  0  0  0  0  0  0  0
  -12.3179  -21.1260   30.5694 H   0  0  0  0  0  0  0  0  0  0  0  0
  -11.2117  -23.1865   31.6086 H   0  0  0  0  0  0  0  0  0  0  0  0
   -9.9036  -24.2488   31.6036 H   0  0  0  0  0  0  0  0  0  0  0  0
   -9.9219  -23.7436   33.8647 H   0  0  0  0  0  0  0  0  0  0  0  0
  -10.9514  -22.2722   33.6088 H   0  0  0  0  0  0  0  0  0  0  0  0
   -8.6660  -22.0341   34.7748 H   0  0  0  0  0  0  0  0  0  0  0  0
   -9.3878  -20.8581   33.7350 H   0  0  0  0  0  0  0  0  0  0  0  0
   -7.5861  -20.9441   32.5542 H   0  0  0  0  0  0  0  0  0  0  0  0
   -7.0251  -22.4841   33.2143 H   0  0  0  0  0  0  0  0  0  0  0  0
   -7.6146  -22.4010   30.7485 H   0  0  0  0  0  0  0  0  0  0  0  0
   -8.1269  -23.7538   31.5638 H   0  0  0  0  0  0  0  0  0  0  0  0
  1  2  1  0
  2  3  1  0
  2  4  1  0
  4  5  1  0
  5  6  2  0
  5  7  1  0
  7  8  1  0
  8  9  1  0
  9 10  1  0
 10 11  1  0
 11 12  1  0
 12 13  2  0
 12 14  1  0
 14 15  1  0
 15 16  1  0
 16 17  2  0
 16 18  1  0
 18 19  1  0
 19 20  1  0
 20 21  1  0
 21 22  1  0
 22 23  1  0
 11  7  1  0
 23 18  1  0
  1 24  1  0
  1 25  1  0
  1 26  1  0
  2 27  1  0
  3 28  1  0
  3 29  1  0
  3 30  1  0
  8 31  1  0
  8 32  1  0
  9 33  1  0
  9 34  1  0
 10 35  1  0
 10 36  1  0
 11 37  1  0
 15 38  1  0
 15 39  1  0
 19 40  1  0
 19 41  1  0
 20 42  1  0
 20 43  1  0
 21 44  1  0
 21 45  1  0
 22 46  1  0
 22 47  1  0
 23 48  1  0
 23 49  1  0
M  END
>  <Energy>  (349) 
166.49641573083295

>  <compound_id>  (349) 
5941

>  <target_id>  (349) 
1

>  <reference_id>  (349) 
3

>  <inspiration_ids>  (349) 
[3, 46]

>  <energy_score>  (349) 
125.89980603655133

>  <distance_score>  (349) 
3.384681299188852

>  <path>  (349) 
/opt/xchem-fragalysis-2/maxwin/BulkDock/SCRATCH/511014/C5941-P3/C5941-P3.minimised.mol

>  <scratch_subdir>  (349) 
/opt/xchem-fragalysis-2/maxwin/BulkDock/SCRATCH/511014/C5941-P3

>  <fragmenstein_runtime>  (349) 
9.467568635940552

>  <fragmenstein_outcome>  (349) 
too moved

>  <fragmenstein_mode>  (349) 
expansion

>  <fragmenstein_error>  (349) 


$$$$
C5941-P46
     RDKit          3D

 49 50  0  0  0  0  0  0  0  0999 V2000
   -9.9782  -24.8688   32.2696 C   0  0  0  0  0  0  0  0  0  0  0  0
  -10.7370  -25.5996   31.1697 C   0  0  0  0  0  0  0  0  0  0  0  0
  -10.9241  -27.0621   31.5247 C   0  0  0  0  0  0  0  0  0  0  0  0
   -9.9741  -25.4925   29.9534 O   0  0  0  0  0  0  0  0  0  0  0  0
  -10.4259  -26.1835   28.8615 C   0  0  0  0  0  0  0  0  0  0  0  0
   -9.6734  -26.9213   28.3100 O   0  0  0  0  0  0  0  0  0  0  0  0
  -11.7281  -25.8041   28.5337 N   0  0  0  0  0  0  0  0  0  0  0  0
  -12.6463  -26.2827   27.4478 C   0  0  0  0  0  0  0  0  0  0  0  0
  -12.3116  -25.9591   26.0256 C   0  0  0  0  0  0  0  0  0  0  0  0
  -12.2068  -24.5116   26.2392 C   0  0  0  0  0  0  0  0  0  0  0  0
  -11.7016  -24.5556   27.6659 C   0  0  0  0  0  0  0  0  0  0  0  0
  -12.3979  -23.6078   28.5928 C   0  0  0  0  0  0  0  0  0  0  0  0
  -13.6113  -23.4635   28.6089 O   0  0  0  0  0  0  0  0  0  0  0  0
  -11.5365  -23.0174   29.4591 O   0  0  0  0  0  0  0  0  0  0  0  0
  -12.1687  -22.0185   30.1890 C   0  0  0  0  0  0  0  0  0  0  0  0
  -11.9387  -21.6672   31.6550 C   0  0  0  0  0  0  0  0  0  0  0  0
  -11.1305  -20.8071   31.8774 O   0  0  0  0  0  0  0  0  0  0  0  0
  -12.8098  -22.3670   32.5351 N   0  0  0  0  0  0  0  0  0  0  0  0
  -14.1935  -21.6276   32.6519 C   0  0  0  0  0  0  0  0  0  0  0  0
  -14.7586  -20.5877   33.6543 C   0  0  0  0  0  0  0  0  0  0  0  0
  -13.7290  -19.9465   34.5184 C   0  0  0  0  0  0  0  0  0  0  0  0
  -12.5797  -20.9038   34.5399 C   0  0  0  0  0  0  0  0  0  0  0  0
  -12.9166  -22.3360   33.9879 C   0  0  0  0  0  0  0  0  0  0  0  0
   -9.9772  -23.7941   32.0823 H   0  0  0  0  0  0  0  0  0  0  0  0
  -10.4380  -25.0311   33.2495 H   0  0  0  0  0  0  0  0  0  0  0  0
   -8.9323  -25.1864   32.3060 H   0  0  0  0  0  0  0  0  0  0  0  0
  -11.6953  -25.0982   31.0453 H   0  0  0  0  0  0  0  0  0  0  0  0
  -11.3413  -27.1909   32.5212 H   0  0  0  0  0  0  0  0  0  0  0  0
  -11.5873  -27.5678   30.8174 H   0  0  0  0  0  0  0  0  0  0  0  0
   -9.9779  -27.6047   31.4620 H   0  0  0  0  0  0  0  0  0  0  0  0
  -13.6747  -25.9767   27.6978 H   0  0  0  0  0  0  0  0  0  0  0  0
  -12.6487  -27.3706   27.5711 H   0  0  0  0  0  0  0  0  0  0  0  0
  -11.3752  -26.4233   25.7160 H   0  0  0  0  0  0  0  0  0  0  0  0
  -13.1009  -26.2333   25.3217 H   0  0  0  0  0  0  0  0  0  0  0  0
  -13.1725  -24.0087   26.1352 H   0  0  0  0  0  0  0  0  0  0  0  0
  -11.5058  -24.0355   25.5483 H   0  0  0  0  0  0  0  0  0  0  0  0
  -10.6626  -24.1990   27.6168 H   0  0  0  0  0  0  0  0  0  0  0  0
  -11.9359  -21.1045   29.6349 H   0  0  0  0  0  0  0  0  0  0  0  0
  -13.2511  -22.0719   30.1275 H   0  0  0  0  0  0  0  0  0  0  0  0
  -14.9243  -22.4510   32.7346 H   0  0  0  0  0  0  0  0  0  0  0  0
  -14.4514  -21.2835   31.6506 H   0  0  0  0  0  0  0  0  0  0  0  0
  -15.3697  -19.8427   33.1337 H   0  0  0  0  0  0  0  0  0  0  0  0
  -15.4738  -21.1095   34.3073 H   0  0  0  0  0  0  0  0  0  0  0  0
  -13.4054  -18.9596   34.1795 H   0  0  0  0  0  0  0  0  0  0  0  0
  -14.1304  -19.7230   35.5058 H   0  0  0  0  0  0  0  0  0  0  0  0
  -11.8102  -20.4253   33.9438 H   0  0  0  0  0  0  0  0  0  0  0  0
  -12.1843  -20.9406   35.5430 H   0  0  0  0  0  0  0  0  0  0  0  0
  -12.0756  -22.9679   34.2950 H   0  0  0  0  0  0  0  0  0  0  0  0
  -13.7823  -22.8811   34.3967 H   0  0  0  0  0  0  0  0  0  0  0  0
  1  2  1  0
  2  3  1  0
  2  4  1  0
  4  5  1  0
  5  6  2  0
  5  7  1  0
  7  8  1  0
  8  9  1  0
  9 10  1  0
 10 11  1  0
 11 12  1  0
 12 13  2  0
 12 14  1  0
 14 15  1  0
 15 16  1  0
 16 17  2  0
 16 18  1  0
 18 19  1  0
 19 20  1  0
 20 21  1  0
 21 22  1  0
 22 23  1  0
 11  7  1  0
 23 18  1  0
  1 24  1  0
  1 25  1  0
  1 26  1  0
  2 27  1  0
  3 28  1  0
  3 29  1  0
  3 30  1  0
  8 31  1  0
  8 32  1  0
  9 33  1  0
  9 34  1  0
 10 35  1  0
 10 36  1  0
 11 37  1  0
 15 38  1  0
 15 39  1  0
 19 40  1  0
 19 41  1  0
 20 42  1  0
 20 43  1  0
 21 44  1  0
 21 45  1  0
 22 46  1  0
 22 47  1  0
 23 48  1  0
 23 49  1  0
M  END
>  <Energy>  (350) 
175.22464172118873

>  <compound_id>  (350) 
5941

>  <target_id>  (350) 
1

>  <reference_id>  (350) 
46

>  <inspiration_ids>  (350) 
[3, 46]

>  <energy_score>  (350) 
134.62803202690657

>  <distance_score>  (350) 
3.1061316054509045

>  <path>  (350) 
/opt/xchem-fragalysis-2/maxwin/BulkDock/SCRATCH/511014/C5941-P46/C5941-P46.minimised.mol

>  <scratch_subdir>  (350) 
/opt/xchem-fragalysis-2/maxwin/BulkDock/SCRATCH/511014/C5941-P46

>  <fragmenstein_runtime>  (350) 
9.512667417526245

>  <fragmenstein_outcome>  (350) 
too moved

>  <fragmenstein_mode>  (350) 
expansion

>  <fragmenstein_error>  (350) 


$$$$
C5944-P3
     RDKit          3D

 50 52  0  0  0  0  0  0  0  0999 V2000
  -11.2304  -24.4698   29.4628 C   0  0  0  0  0  0  0  0  0  0  0  0
  -10.8469  -24.6970   30.9066 C   0  0  0  0  0  0  0  0  0  0  0  0
  -10.7268  -23.3556   31.4968 N   0  0  0  0  0  0  0  0  0  0  0  0
   -9.6038  -22.4522   31.5755 C   0  0  0  0  0  0  0  0  0  0  0  0
   -8.4603  -22.5975   31.2505 O   0  0  0  0  0  0  0  0  0  0  0  0
  -10.0805  -21.0590   32.1217 C   0  0  0  0  0  0  0  0  0  0  0  0
  -11.0249  -20.4299   31.1974 N   0  0  0  0  0  0  0  0  0  0  0  0
  -10.8665  -19.7464   30.0129 C   0  0  0  0  0  0  0  0  0  0  0  0
  -11.3677  -20.6400   29.0760 C   0  0  0  0  0  0  0  0  0  0  0  0
  -11.2578  -20.7551   27.6129 C   0  0  0  0  0  0  0  0  0  0  0  0
  -12.5134  -20.9112   26.7948 C   0  0  0  0  0  0  0  0  0  0  0  0
  -12.7450  -22.3971   26.6450 C   0  0  0  0  0  0  0  0  0  0  0  0
  -11.3335  -22.8981   26.5062 C   0  0  0  0  0  0  0  0  0  0  0  0
  -10.5273  -21.9735   27.2819 N   0  0  0  0  0  0  0  0  0  0  0  0
  -12.0346  -21.5854   29.7469 N   0  0  0  0  0  0  0  0  0  0  0  0
  -12.0827  -21.1744   30.9887 N   0  0  0  0  0  0  0  0  0  0  0  0
  -11.8766  -25.6967   31.6134 C   0  0  0  0  0  0  0  0  0  0  0  0
  -11.5673  -26.2617   32.6301 O   0  0  0  0  0  0  0  0  0  0  0  0
  -13.1233  -25.6749   30.9026 N   0  0  0  0  0  0  0  0  0  0  0  0
  -14.4640  -26.2532   31.2546 C   0  0  0  0  0  0  0  0  0  0  0  0
  -15.6083  -25.8686   30.2955 C   0  0  0  0  0  0  0  0  0  0  0  0
  -15.0923  -25.5207   28.9112 C   0  0  0  0  0  0  0  0  0  0  0  0
  -13.9244  -26.4258   28.5823 C   0  0  0  0  0  0  0  0  0  0  0  0
  -13.1599  -26.8031   29.8613 C   0  0  0  0  0  0  0  0  0  0  0  0
  -11.1075  -25.3597   28.8451 H   0  0  0  0  0  0  0  0  0  0  0  0
  -12.2477  -24.0941   29.3321 H   0  0  0  0  0  0  0  0  0  0  0  0
  -10.5888  -23.6962   29.0834 H   0  0  0  0  0  0  0  0  0  0  0  0
   -9.8498  -25.1154   30.9442 H   0  0  0  0  0  0  0  0  0  0  0  0
  -11.5698  -22.8628   31.7886 H   0  0  0  0  0  0  0  0  0  0  0  0
   -9.2456  -20.3920   32.3127 H   0  0  0  0  0  0  0  0  0  0  0  0
  -10.6012  -21.2038   33.0760 H   0  0  0  0  0  0  0  0  0  0  0  0
  -10.3442  -18.8099   29.9358 H   0  0  0  0  0  0  0  0  0  0  0  0
  -10.7390  -19.8611   27.3001 H   0  0  0  0  0  0  0  0  0  0  0  0
  -12.3649  -20.4846   25.7938 H   0  0  0  0  0  0  0  0  0  0  0  0
  -13.3341  -20.3973   27.2428 H   0  0  0  0  0  0  0  0  0  0  0  0
  -13.2192  -22.8246   27.5304 H   0  0  0  0  0  0  0  0  0  0  0  0
  -13.3651  -22.6348   25.7757 H   0  0  0  0  0  0  0  0  0  0  0  0
  -11.0133  -22.8452   25.4596 H   0  0  0  0  0  0  0  0  0  0  0  0
  -11.2343  -23.9392   26.8176 H   0  0  0  0  0  0  0  0  0  0  0  0
  -10.0282  -22.3569   28.0678 H   0  0  0  0  0  0  0  0  0  0  0  0
  -14.4781  -27.2899   31.6313 H   0  0  0  0  0  0  0  0  0  0  0  0
  -14.6999  -25.7250   32.1916 H   0  0  0  0  0  0  0  0  0  0  0  0
  -16.3129  -26.7069   30.2388 H   0  0  0  0  0  0  0  0  0  0  0  0
  -16.1710  -25.0168   30.6960 H   0  0  0  0  0  0  0  0  0  0  0  0
  -14.7526  -24.4784   28.9079 H   0  0  0  0  0  0  0  0  0  0  0  0
  -15.8829  -25.5957   28.1576 H   0  0  0  0  0  0  0  0  0  0  0  0
  -13.2670  -25.9244   27.8632 H   0  0  0  0  0  0  0  0  0  0  0  0
  -14.2734  -27.3443   28.0960 H   0  0  0  0  0  0  0  0  0  0  0  0
  -12.1199  -26.9752   29.5509 H   0  0  0  0  0  0  0  0  0  0  0  0
  -13.3849  -27.8211   30.2272 H   0  0  0  0  0  0  0  0  0  0  0  0
  1  2  1  0
  2  3  1  0
  3  4  1  0
  4  5  2  0
  4  6  1  0
  6  7  1  0
  7  8  1  0
  8  9  2  0
  9 10  1  0
 10 11  1  0
 11 12  1  0
 12 13  1  0
 13 14  1  0
  9 15  1  0
 15 16  2  0
  2 17  1  0
 17 18  2  0
 17 19  1  0
 19 20  1  0
 20 21  1  0
 21 22  1  0
 22 23  1  0
 23 24  1  0
 16  7  1  0
 24 19  1  0
 14 10  1  0
  1 25  1  0
  1 26  1  0
  1 27  1  0
  2 28  1  0
  3 29  1  0
  6 30  1  0
  6 31  1  0
  8 32  1  0
 10 33  1  0
 11 34  1  0
 11 35  1  0
 12 36  1  0
 12 37  1  0
 13 38  1  0
 13 39  1  0
 14 40  1  0
 20 41  1  0
 20 42  1  0
 21 43  1  0
 21 44  1  0
 22 45  1  0
 22 46  1  0
 23 47  1  0
 23 48  1  0
 24 49  1  0
 24 50  1  0
M  END
>  <Energy>  (351) 
154.88806183656908

>  <compound_id>  (351) 
5944

>  <target_id>  (351) 
1

>  <reference_id>  (351) 
3

>  <inspiration_ids>  (351) 
[3, 46]

>  <energy_score>  (351) 
80.38284829274261

>  <distance_score>  (351) 
4.490573271885014

>  <path>  (351) 
/opt/xchem-fragalysis-2/maxwin/BulkDock/SCRATCH/511014/C5944-P3/C5944-P3.minimised.mol

>  <scratch_subdir>  (351) 
/opt/xchem-fragalysis-2/maxwin/BulkDock/SCRATCH/511014/C5944-P3

>  <fragmenstein_runtime>  (351) 
14.342427730560303

>  <fragmenstein_outcome>  (351) 
too moved

>  <fragmenstein_mode>  (351) 
expansion

>  <fragmenstein_error>  (351) 


$$$$
C5944-P46
     RDKit          3D

 50 52  0  0  0  0  0  0  0  0999 V2000
   -9.6879  -26.6712   29.2430 C   0  0  0  0  0  0  0  0  0  0  0  0
  -11.0576  -26.1426   29.4533 C   0  0  0  0  0  0  0  0  0  0  0  0
  -11.3034  -25.8801   30.8732 N   0  0  0  0  0  0  0  0  0  0  0  0
  -10.4641  -25.2693   31.8872 C   0  0  0  0  0  0  0  0  0  0  0  0
   -9.3242  -24.8963   31.8380 O   0  0  0  0  0  0  0  0  0  0  0  0
  -11.2530  -24.9841   33.1984 C   0  0  0  0  0  0  0  0  0  0  0  0
  -11.5475  -23.5626   33.3978 N   0  0  0  0  0  0  0  0  0  0  0  0
  -10.8505  -22.5507   32.7772 C   0  0  0  0  0  0  0  0  0  0  0  0
  -11.8585  -22.1568   31.9240 C   0  0  0  0  0  0  0  0  0  0  0  0
  -11.7268  -22.4593   30.4930 C   0  0  0  0  0  0  0  0  0  0  0  0
  -11.5019  -21.4230   29.4791 C   0  0  0  0  0  0  0  0  0  0  0  0
  -11.4388  -22.2634   28.2382 C   0  0  0  0  0  0  0  0  0  0  0  0
  -12.5773  -23.1907   28.4879 C   0  0  0  0  0  0  0  0  0  0  0  0
  -12.7575  -23.2816   29.9066 N   0  0  0  0  0  0  0  0  0  0  0  0
  -13.0189  -22.2193   32.6433 N   0  0  0  0  0  0  0  0  0  0  0  0
  -12.7961  -23.0980   33.6252 N   0  0  0  0  0  0  0  0  0  0  0  0
  -12.0939  -27.0185   28.6419 C   0  0  0  0  0  0  0  0  0  0  0  0
  -12.2937  -28.1726   28.9120 O   0  0  0  0  0  0  0  0  0  0  0  0
  -12.7208  -26.1656   27.6694 N   0  0  0  0  0  0  0  0  0  0  0  0
  -13.9064  -26.4111   26.7540 C   0  0  0  0  0  0  0  0  0  0  0  0
  -14.2497  -25.4550   25.5819 C   0  0  0  0  0  0  0  0  0  0  0  0
  -13.2520  -24.3240   25.4773 C   0  0  0  0  0  0  0  0  0  0  0  0
  -11.8571  -24.8546   25.7065 C   0  0  0  0  0  0  0  0  0  0  0  0
  -11.9715  -26.2321   26.3594 C   0  0  0  0  0  0  0  0  0  0  0  0
   -9.5262  -27.4994   29.9265 H   0  0  0  0  0  0  0  0  0  0  0  0
   -9.5271  -26.9921   28.2186 H   0  0  0  0  0  0  0  0  0  0  0  0
   -8.9781  -25.8694   29.4456 H   0  0  0  0  0  0  0  0  0  0  0  0
  -11.0057  -25.1587   28.9986 H   0  0  0  0  0  0  0  0  0  0  0  0
  -12.1904  -26.1423   31.2910 H   0  0  0  0  0  0  0  0  0  0  0  0
  -10.6998  -25.3396   34.0702 H   0  0  0  0  0  0  0  0  0  0  0  0
  -12.2203  -25.4404   33.1456 H   0  0  0  0  0  0  0  0  0  0  0  0
   -9.7971  -22.6901   32.6476 H   0  0  0  0  0  0  0  0  0  0  0  0
  -10.8816  -23.1387   30.4505 H   0  0  0  0  0  0  0  0  0  0  0  0
  -10.5778  -20.9048   29.6704 H   0  0  0  0  0  0  0  0  0  0  0  0
  -12.3435  -20.7432   29.3906 H   0  0  0  0  0  0  0  0  0  0  0  0
  -10.4964  -22.8212   28.2018 H   0  0  0  0  0  0  0  0  0  0  0  0
  -11.5500  -21.7231   27.3047 H   0  0  0  0  0  0  0  0  0  0  0  0
  -12.3678  -24.1363   28.0639 H   0  0  0  0  0  0  0  0  0  0  0  0
  -13.4979  -22.8513   28.0656 H   0  0  0  0  0  0  0  0  0  0  0  0
  -12.5307  -24.2258   30.2384 H   0  0  0  0  0  0  0  0  0  0  0  0
  -14.0232  -27.4682   26.4934 H   0  0  0  0  0  0  0  0  0  0  0  0
  -14.7358  -26.3144   27.4662 H   0  0  0  0  0  0  0  0  0  0  0  0
  -14.2393  -26.0360   24.6509 H   0  0  0  0  0  0  0  0  0  0  0  0
  -15.2707  -25.0723   25.6707 H   0  0  0  0  0  0  0  0  0  0  0  0
  -13.4550  -23.6266   26.2636 H   0  0  0  0  0  0  0  0  0  0  0  0
  -13.3656  -23.7364   24.5636 H   0  0  0  0  0  0  0  0  0  0  0  0
  -11.3067  -24.9468   24.7756 H   0  0  0  0  0  0  0  0  0  0  0  0
  -11.2559  -24.1675   26.3038 H   0  0  0  0  0  0  0  0  0  0  0  0
  -10.9579  -26.5473   26.6177 H   0  0  0  0  0  0  0  0  0  0  0  0
  -12.2430  -26.9523   25.5930 H   0  0  0  0  0  0  0  0  0  0  0  0
  1  2  1  0
  2  3  1  0
  3  4  1  0
  4  5  2  0
  4  6  1  0
  6  7  1  0
  7  8  1  0
  8  9  2  0
  9 10  1  0
 10 11  1  0
 11 12  1  0
 12 13  1  0
 13 14  1  0
  9 15  1  0
 15 16  2  0
  2 17  1  0
 17 18  2  0
 17 19  1  0
 19 20  1  0
 20 21  1  0
 21 22  1  0
 22 23  1  0
 23 24  1  0
 16  7  1  0
 24 19  1  0
 14 10  1  0
  1 25  1  0
  1 26  1  0
  1 27  1  0
  2 28  1  0
  3 29  1  0
  6 30  1  0
  6 31  1  0
  8 32  1  0
 10 33  1  0
 11 34  1  0
 11 35  1  0
 12 36  1  0
 12 37  1  0
 13 38  1  0
 13 39  1  0
 14 40  1  0
 20 41  1  0
 20 42  1  0
 21 43  1  0
 21 44  1  0
 22 45  1  0
 22 46  1  0
 23 47  1  0
 23 48  1  0
 24 49  1  0
 24 50  1  0
M  END
>  <Energy>  (352) 
196.13337735602494

>  <compound_id>  (352) 
5944

>  <target_id>  (352) 
1

>  <reference_id>  (352) 
46

>  <inspiration_ids>  (352) 
[3, 46]

>  <energy_score>  (352) 
121.6281638121979

>  <distance_score>  (352) 
3.4628443102367346

>  <path>  (352) 
/opt/xchem-fragalysis-2/maxwin/BulkDock/SCRATCH/511014/C5944-P46/C5944-P46.minimised.mol

>  <scratch_subdir>  (352) 
/opt/xchem-fragalysis-2/maxwin/BulkDock/SCRATCH/511014/C5944-P46

>  <fragmenstein_runtime>  (352) 
11.741860628128052

>  <fragmenstein_outcome>  (352) 
too moved

>  <fragmenstein_mode>  (352) 
expansion

>  <fragmenstein_error>  (352) 


$$$$
C5953-P3
     RDKit          3D

 55 56  0  0  0  0  0  0  0  0999 V2000
  -10.9981  -21.8687   28.2489 C   0  0  0  0  0  0  0  0  0  0  0  0
  -11.0864  -22.9721   29.3319 C   0  0  0  0  0  0  0  0  0  0  0  0
  -11.1743  -22.2139   30.6828 C   0  0  0  0  0  0  0  0  0  0  0  0
   -9.9750  -21.5691   31.1746 N   0  0  0  0  0  0  0  0  0  0  0  0
   -8.9450  -22.5492   31.5497 C   0  0  0  0  0  0  0  0  0  0  0  0
   -8.2191  -22.1482   32.8092 C   0  0  0  0  0  0  0  0  0  0  0  0
   -9.2154  -22.0842   33.9437 C   0  0  0  0  0  0  0  0  0  0  0  0
  -10.4214  -21.2335   33.6012 C   0  0  0  0  0  0  0  0  0  0  0  0
  -10.3287  -20.6010   32.2365 C   0  0  0  0  0  0  0  0  0  0  0  0
  -12.3247  -23.8449   28.9361 N   0  0  0  0  0  0  0  0  0  0  0  0
  -11.5878  -24.8777   29.7323 C   0  0  0  0  0  0  0  0  0  0  0  0
  -12.7160  -24.3920   27.6675 C   0  0  0  0  0  0  0  0  0  0  0  0
  -12.1471  -24.3950   26.6083 O   0  0  0  0  0  0  0  0  0  0  0  0
  -14.0426  -25.1933   27.7157 C   0  0  0  0  0  0  0  0  0  0  0  0
  -14.0375  -26.2716   27.1830 O   0  0  0  0  0  0  0  0  0  0  0  0
  -15.0880  -24.4923   28.3683 N   0  0  0  0  0  0  0  0  0  0  0  0
  -16.4809  -24.9081   28.7003 C   0  0  0  0  0  0  0  0  0  0  0  0
  -17.2319  -25.3920   27.4752 C   0  0  0  0  0  0  0  0  0  0  0  0
  -16.7824  -24.3757   26.4638 C   0  0  0  0  0  0  0  0  0  0  0  0
  -17.9144  -23.6101   25.9126 N   0  0  0  0  0  0  0  0  0  0  0  0
  -18.6723  -24.4103   24.9438 C   0  0  0  0  0  0  0  0  0  0  0  0
  -17.5426  -22.3256   25.3227 C   0  0  0  0  0  0  0  0  0  0  0  0
  -15.8263  -23.6104   27.3833 C   0  0  0  0  0  0  0  0  0  0  0  0
  -10.7955  -22.3023   27.2649 H   0  0  0  0  0  0  0  0  0  0  0  0
  -10.1902  -21.1631   28.4628 H   0  0  0  0  0  0  0  0  0  0  0  0
  -11.9311  -21.3013   28.1710 H   0  0  0  0  0  0  0  0  0  0  0  0
  -10.1238  -23.4648   29.2507 H   0  0  0  0  0  0  0  0  0  0  0  0
  -11.4438  -22.8940   31.4747 H   0  0  0  0  0  0  0  0  0  0  0  0
  -11.9405  -21.4447   30.5626 H   0  0  0  0  0  0  0  0  0  0  0  0
   -8.2302  -22.6363   30.7318 H   0  0  0  0  0  0  0  0  0  0  0  0
   -9.3600  -23.5537   31.7023 H   0  0  0  0  0  0  0  0  0  0  0  0
   -7.7537  -21.1749   32.6704 H   0  0  0  0  0  0  0  0  0  0  0  0
   -7.4215  -22.8558   33.0321 H   0  0  0  0  0  0  0  0  0  0  0  0
   -8.7202  -21.7553   34.8531 H   0  0  0  0  0  0  0  0  0  0  0  0
   -9.5705  -23.0969   34.1353 H   0  0  0  0  0  0  0  0  0  0  0  0
  -11.2704  -21.8839   33.5932 H   0  0  0  0  0  0  0  0  0  0  0  0
  -10.6590  -20.4933   34.3641 H   0  0  0  0  0  0  0  0  0  0  0  0
   -9.5763  -19.8174   32.2798 H   0  0  0  0  0  0  0  0  0  0  0  0
  -11.2562  -20.0637   32.0010 H   0  0  0  0  0  0  0  0  0  0  0  0
  -10.8848  -25.4425   29.1149 H   0  0  0  0  0  0  0  0  0  0  0  0
  -12.3604  -25.6354   29.9408 H   0  0  0  0  0  0  0  0  0  0  0  0
  -11.2112  -24.6695   30.7371 H   0  0  0  0  0  0  0  0  0  0  0  0
  -16.3733  -25.7595   29.3854 H   0  0  0  0  0  0  0  0  0  0  0  0
  -17.0102  -24.1392   29.2867 H   0  0  0  0  0  0  0  0  0  0  0  0
  -18.3093  -25.4229   27.6675 H   0  0  0  0  0  0  0  0  0  0  0  0
  -16.9156  -26.3985   27.1782 H   0  0  0  0  0  0  0  0  0  0  0  0
  -16.2100  -24.8573   25.6603 H   0  0  0  0  0  0  0  0  0  0  0  0
  -19.5641  -23.8672   24.6110 H   0  0  0  0  0  0  0  0  0  0  0  0
  -18.0727  -24.6597   24.0613 H   0  0  0  0  0  0  0  0  0  0  0  0
  -19.0302  -25.3439   25.3902 H   0  0  0  0  0  0  0  0  0  0  0  0
  -17.1541  -21.6425   26.0818 H   0  0  0  0  0  0  0  0  0  0  0  0
  -16.7943  -22.4254   24.5328 H   0  0  0  0  0  0  0  0  0  0  0  0
  -18.4206  -21.8250   24.8981 H   0  0  0  0  0  0  0  0  0  0  0  0
  -15.0705  -23.1137   26.7580 H   0  0  0  0  0  0  0  0  0  0  0  0
  -16.3245  -22.7901   27.9234 H   0  0  0  0  0  0  0  0  0  0  0  0
  1  2  1  0
  2  3  1  0
  3  4  1  0
  4  5  1  0
  5  6  1  0
  6  7  1  0
  7  8  1  0
  8  9  1  0
  2 10  1  0
 10 11  1  0
 10 12  1  0
 12 13  2  0
 12 14  1  0
 14 15  2  0
 14 16  1  0
 16 17  1  0
 17 18  1  0
 18 19  1  0
 19 20  1  0
 20 21  1  0
 20 22  1  0
 19 23  1  0
  9  4  1  0
 23 16  1  0
  1 24  1  0
  1 25  1  0
  1 26  1  0
  2 27  1  0
  3 28  1  0
  3 29  1  0
  5 30  1  0
  5 31  1  0
  6 32  1  0
  6 33  1  0
  7 34  1  0
  7 35  1  0
  8 36  1  0
  8 37  1  0
  9 38  1  0
  9 39  1  0
 11 40  1  0
 11 41  1  0
 11 42  1  0
 17 43  1  0
 17 44  1  0
 18 45  1  0
 18 46  1  0
 19 47  1  0
 21 48  1  0
 21 49  1  0
 21 50  1  0
 22 51  1  0
 22 52  1  0
 22 53  1  0
 23 54  1  0
 23 55  1  0
M  END
>  <Energy>  (353) 
243.37733033942123

>  <compound_id>  (353) 
5953

>  <target_id>  (353) 
1

>  <reference_id>  (353) 
3

>  <inspiration_ids>  (353) 
[3, 46]

>  <energy_score>  (353) 
84.33797568017172

>  <distance_score>  (353) 
3.846808684507589

>  <path>  (353) 
/opt/xchem-fragalysis-2/maxwin/BulkDock/SCRATCH/511014/C5953-P3/C5953-P3.minimised.mol

>  <scratch_subdir>  (353) 
/opt/xchem-fragalysis-2/maxwin/BulkDock/SCRATCH/511014/C5953-P3

>  <fragmenstein_runtime>  (353) 
13.494278192520142

>  <fragmenstein_outcome>  (353) 
too moved

>  <fragmenstein_mode>  (353) 
expansion

>  <fragmenstein_error>  (353) 


$$$$
C5953-P46
     RDKit          3D

 55 56  0  0  0  0  0  0  0  0999 V2000
  -11.8533  -21.9249   31.0557 C   0  0  0  0  0  0  0  0  0  0  0  0
  -11.4458  -23.1279   31.9191 C   0  0  0  0  0  0  0  0  0  0  0  0
  -12.3631  -23.1350   33.2375 C   0  0  0  0  0  0  0  0  0  0  0  0
  -13.2620  -22.0393   33.6622 N   0  0  0  0  0  0  0  0  0  0  0  0
  -14.6306  -22.0960   33.2086 C   0  0  0  0  0  0  0  0  0  0  0  0
  -15.6026  -21.3010   34.0682 C   0  0  0  0  0  0  0  0  0  0  0  0
  -15.1630  -19.8640   34.1961 C   0  0  0  0  0  0  0  0  0  0  0  0
  -13.7148  -19.7094   34.6413 C   0  0  0  0  0  0  0  0  0  0  0  0
  -12.7308  -20.7867   34.1458 C   0  0  0  0  0  0  0  0  0  0  0  0
  -11.5323  -24.3232   30.8822 N   0  0  0  0  0  0  0  0  0  0  0  0
  -10.6063  -24.9648   31.8677 C   0  0  0  0  0  0  0  0  0  0  0  0
  -11.0025  -24.4500   29.5546 C   0  0  0  0  0  0  0  0  0  0  0  0
  -10.2811  -23.7174   28.9240 O   0  0  0  0  0  0  0  0  0  0  0  0
  -11.4489  -25.6061   28.6880 C   0  0  0  0  0  0  0  0  0  0  0  0
  -10.6436  -26.4195   28.3362 O   0  0  0  0  0  0  0  0  0  0  0  0
  -12.8099  -25.4564   28.3530 N   0  0  0  0  0  0  0  0  0  0  0  0
  -13.7123  -26.3218   27.5428 C   0  0  0  0  0  0  0  0  0  0  0  0
  -13.2699  -26.4713   26.1258 C   0  0  0  0  0  0  0  0  0  0  0  0
  -13.2407  -25.0590   25.7420 C   0  0  0  0  0  0  0  0  0  0  0  0
  -14.4621  -24.4629   25.1908 N   0  0  0  0  0  0  0  0  0  0  0  0
  -15.4981  -25.3530   24.7005 C   0  0  0  0  0  0  0  0  0  0  0  0
  -14.1930  -23.3488   24.2929 C   0  0  0  0  0  0  0  0  0  0  0  0
  -12.9545  -24.5450   27.1423 C   0  0  0  0  0  0  0  0  0  0  0  0
  -11.6519  -21.0144   31.6043 H   0  0  0  0  0  0  0  0  0  0  0  0
  -12.9017  -21.9773   30.7583 H   0  0  0  0  0  0  0  0  0  0  0  0
  -11.2710  -21.8368   30.1357 H   0  0  0  0  0  0  0  0  0  0  0  0
  -10.4187  -22.8499   32.2032 H   0  0  0  0  0  0  0  0  0  0  0  0
  -11.6696  -23.2683   34.0667 H   0  0  0  0  0  0  0  0  0  0  0  0
  -12.9071  -24.0757   33.2963 H   0  0  0  0  0  0  0  0  0  0  0  0
  -15.0076  -23.1153   33.2800 H   0  0  0  0  0  0  0  0  0  0  0  0
  -14.7101  -21.7557   32.1712 H   0  0  0  0  0  0  0  0  0  0  0  0
  -16.5999  -21.3366   33.6123 H   0  0  0  0  0  0  0  0  0  0  0  0
  -15.7094  -21.7689   35.0496 H   0  0  0  0  0  0  0  0  0  0  0  0
  -15.8230  -19.3227   34.8835 H   0  0  0  0  0  0  0  0  0  0  0  0
  -15.3102  -19.4117   33.2172 H   0  0  0  0  0  0  0  0  0  0  0  0
  -13.6793  -19.6634   35.7317 H   0  0  0  0  0  0  0  0  0  0  0  0
  -13.3504  -18.7148   34.3557 H   0  0  0  0  0  0  0  0  0  0  0  0
  -12.1310  -21.0196   35.0184 H   0  0  0  0  0  0  0  0  0  0  0  0
  -12.0493  -20.3301   33.4305 H   0  0  0  0  0  0  0  0  0  0  0  0
  -11.0066  -25.1297   32.8741 H   0  0  0  0  0  0  0  0  0  0  0  0
  -10.4748  -25.9912   31.4907 H   0  0  0  0  0  0  0  0  0  0  0  0
   -9.5800  -24.5710   31.8483 H   0  0  0  0  0  0  0  0  0  0  0  0
  -13.6287  -27.3161   28.0037 H   0  0  0  0  0  0  0  0  0  0  0  0
  -14.7579  -26.0545   27.6708 H   0  0  0  0  0  0  0  0  0  0  0  0
  -13.9325  -27.0978   25.5369 H   0  0  0  0  0  0  0  0  0  0  0  0
  -12.2448  -26.8498   26.0833 H   0  0  0  0  0  0  0  0  0  0  0  0
  -12.3643  -24.8710   25.1209 H   0  0  0  0  0  0  0  0  0  0  0  0
  -15.8466  -26.0378   25.4802 H   0  0  0  0  0  0  0  0  0  0  0  0
  -15.1667  -25.9398   23.8389 H   0  0  0  0  0  0  0  0  0  0  0  0
  -16.3895  -24.7835   24.4168 H   0  0  0  0  0  0  0  0  0  0  0  0
  -14.1027  -23.6583   23.2577 H   0  0  0  0  0  0  0  0  0  0  0  0
  -15.0094  -22.6206   24.3322 H   0  0  0  0  0  0  0  0  0  0  0  0
  -13.2579  -22.8365   24.5321 H   0  0  0  0  0  0  0  0  0  0  0  0
  -12.0400  -23.9365   27.0697 H   0  0  0  0  0  0  0  0  0  0  0  0
  -13.6832  -23.8078   27.4782 H   0  0  0  0  0  0  0  0  0  0  0  0
  1  2  1  0
  2  3  1  0
  3  4  1  0
  4  5  1  0
  5  6  1  0
  6  7  1  0
  7  8  1  0
  8  9  1  0
  2 10  1  0
 10 11  1  0
 10 12  1  0
 12 13  2  0
 12 14  1  0
 14 15  2  0
 14 16  1  0
 16 17  1  0
 17 18  1  0
 18 19  1  0
 19 20  1  0
 20 21  1  0
 20 22  1  0
 19 23  1  0
  9  4  1  0
 23 16  1  0
  1 24  1  0
  1 25  1  0
  1 26  1  0
  2 27  1  0
  3 28  1  0
  3 29  1  0
  5 30  1  0
  5 31  1  0
  6 32  1  0
  6 33  1  0
  7 34  1  0
  7 35  1  0
  8 36  1  0
  8 37  1  0
  9 38  1  0
  9 39  1  0
 11 40  1  0
 11 41  1  0
 11 42  1  0
 17 43  1  0
 17 44  1  0
 18 45  1  0
 18 46  1  0
 19 47  1  0
 21 48  1  0
 21 49  1  0
 21 50  1  0
 22 51  1  0
 22 52  1  0
 22 53  1  0
 23 54  1  0
 23 55  1  0
M  END
>  <Energy>  (354) 
270.53799171441091

>  <compound_id>  (354) 
5953

>  <target_id>  (354) 
1

>  <reference_id>  (354) 
46

>  <inspiration_ids>  (354) 
[3, 46]

>  <energy_score>  (354) 
111.49863705515827

>  <distance_score>  (354) 
3.106102448239858

>  <path>  (354) 
/opt/xchem-fragalysis-2/maxwin/BulkDock/SCRATCH/511014/C5953-P46/C5953-P46.minimised.mol

>  <scratch_subdir>  (354) 
/opt/xchem-fragalysis-2/maxwin/BulkDock/SCRATCH/511014/C5953-P46

>  <fragmenstein_runtime>  (354) 
12.331000328063965

>  <fragmenstein_outcome>  (354) 
too moved

>  <fragmenstein_mode>  (354) 
expansion

>  <fragmenstein_error>  (354) 


$$$$
C5954-P3
     RDKit          3D

 50 51  0  0  0  0  0  0  0  0999 V2000
  -10.8009  -22.5343   27.0419 C   0  0  0  0  0  0  0  0  0  0  0  0
  -11.9026  -22.7584   28.0758 C   0  0  0  0  0  0  0  0  0  0  0  0
  -11.2019  -23.0167   29.4627 C   0  0  0  0  0  0  0  0  0  0  0  0
  -10.4341  -21.9792   30.2042 N   0  0  0  0  0  0  0  0  0  0  0  0
  -11.2598  -20.8150   30.5535 C   0  0  0  0  0  0  0  0  0  0  0  0
  -10.9088  -19.9894   31.7889 C   0  0  0  0  0  0  0  0  0  0  0  0
  -10.4643  -20.8545   32.9450 C   0  0  0  0  0  0  0  0  0  0  0  0
   -9.3554  -21.7875   32.5243 C   0  0  0  0  0  0  0  0  0  0  0  0
   -9.8146  -22.6629   31.3677 C   0  0  0  0  0  0  0  0  0  0  0  0
  -12.9842  -23.9381   27.7789 N   0  0  0  0  0  0  0  0  0  0  0  0
  -13.3029  -23.0621   26.6240 C   0  0  0  0  0  0  0  0  0  0  0  0
  -12.3427  -25.2254   27.8305 C   0  0  0  0  0  0  0  0  0  0  0  0
  -11.8220  -25.8749   26.9637 O   0  0  0  0  0  0  0  0  0  0  0  0
  -12.4681  -25.8788   29.2503 C   0  0  0  0  0  0  0  0  0  0  0  0
  -11.5758  -25.8017   30.0456 O   0  0  0  0  0  0  0  0  0  0  0  0
  -13.7770  -26.4234   29.3779 N   0  0  0  0  0  0  0  0  0  0  0  0
  -14.4947  -26.9707   30.5678 C   0  0  0  0  0  0  0  0  0  0  0  0
  -13.7673  -28.0904   31.2657 C   0  0  0  0  0  0  0  0  0  0  0  0
  -13.2938  -28.8465   30.0704 C   0  0  0  0  0  0  0  0  0  0  0  0
  -11.8152  -29.1209   30.1653 C   0  0  0  0  0  0  0  0  0  0  0  0
  -11.2417  -29.4953   31.1771 O   0  0  0  0  0  0  0  0  0  0  0  0
  -11.1300  -28.9985   29.0188 O   0  0  0  0  0  0  0  0  0  0  0  0
  -13.7765  -27.8943   28.9811 C   0  0  0  0  0  0  0  0  0  0  0  0
  -11.1630  -21.9030   26.2272 H   0  0  0  0  0  0  0  0  0  0  0  0
  -10.4665  -23.4660   26.5872 H   0  0  0  0  0  0  0  0  0  0  0  0
   -9.9640  -22.0040   27.4919 H   0  0  0  0  0  0  0  0  0  0  0  0
  -12.4180  -21.8072   28.2461 H   0  0  0  0  0  0  0  0  0  0  0  0
  -10.5151  -23.8398   29.3108 H   0  0  0  0  0  0  0  0  0  0  0  0
  -11.9684  -23.4009   30.1217 H   0  0  0  0  0  0  0  0  0  0  0  0
  -12.2743  -21.1284   30.7177 H   0  0  0  0  0  0  0  0  0  0  0  0
  -11.2932  -20.1437   29.6865 H   0  0  0  0  0  0  0  0  0  0  0  0
  -10.1413  -19.2505   31.5543 H   0  0  0  0  0  0  0  0  0  0  0  0
  -11.7854  -19.4040   32.0928 H   0  0  0  0  0  0  0  0  0  0  0  0
  -11.2973  -21.4344   33.3264 H   0  0  0  0  0  0  0  0  0  0  0  0
  -10.1492  -20.2294   33.7681 H   0  0  0  0  0  0  0  0  0  0  0  0
   -9.0736  -22.4231   33.3712 H   0  0  0  0  0  0  0  0  0  0  0  0
   -8.4600  -21.2257   32.2561 H   0  0  0  0  0  0  0  0  0  0  0  0
   -8.9505  -23.2364   31.0092 H   0  0  0  0  0  0  0  0  0  0  0  0
  -10.5111  -23.3983   31.7817 H   0  0  0  0  0  0  0  0  0  0  0  0
  -13.5788  -22.0161   26.7909 H   0  0  0  0  0  0  0  0  0  0  0  0
  -14.2536  -23.4922   26.2716 H   0  0  0  0  0  0  0  0  0  0  0  0
  -12.6606  -23.2458   25.7563 H   0  0  0  0  0  0  0  0  0  0  0  0
  -14.5648  -26.1284   31.2696 H   0  0  0  0  0  0  0  0  0  0  0  0
  -15.5412  -27.2104   30.3168 H   0  0  0  0  0  0  0  0  0  0  0  0
  -14.4382  -28.6712   31.9057 H   0  0  0  0  0  0  0  0  0  0  0  0
  -12.9549  -27.6974   31.8875 H   0  0  0  0  0  0  0  0  0  0  0  0
  -13.7891  -29.8178   29.9601 H   0  0  0  0  0  0  0  0  0  0  0  0
  -10.2052  -29.1902   29.2979 H   0  0  0  0  0  0  0  0  0  0  0  0
  -13.1461  -27.9859   28.0877 H   0  0  0  0  0  0  0  0  0  0  0  0
  -14.7834  -28.1644   28.6173 H   0  0  0  0  0  0  0  0  0  0  0  0
  1  2  1  0
  2  3  1  0
  3  4  1  0
  4  5  1  0
  5  6  1  0
  6  7  1  0
  7  8  1  0
  8  9  1  0
  2 10  1  0
 10 11  1  0
 10 12  1  0
 12 13  2  0
 12 14  1  0
 14 15  2  0
 14 16  1  0
 16 17  1  0
 17 18  1  0
 18 19  1  0
 19 20  1  0
 20 21  2  0
 20 22  1  0
 19 23  1  0
  9  4  1  0
 23 16  1  0
  1 24  1  0
  1 25  1  0
  1 26  1  0
  2 27  1  0
  3 28  1  0
  3 29  1  0
  5 30  1  0
  5 31  1  0
  6 32  1  0
  6 33  1  0
  7 34  1  0
  7 35  1  0
  8 36  1  0
  8 37  1  0
  9 38  1  0
  9 39  1  0
 11 40  1  0
 11 41  1  0
 11 42  1  0
 17 43  1  0
 17 44  1  0
 18 45  1  0
 18 46  1  0
 19 47  1  0
 22 48  1  0
 23 49  1  0
 23 50  1  0
M  END
>  <Energy>  (355) 
192.59116779077527

>  <compound_id>  (355) 
5954

>  <target_id>  (355) 
1

>  <reference_id>  (355) 
3

>  <inspiration_ids>  (355) 
[3, 46]

>  <energy_score>  (355) 
89.45934616442631

>  <distance_score>  (355) 
3.8826964722360864

>  <path>  (355) 
/opt/xchem-fragalysis-2/maxwin/BulkDock/SCRATCH/511014/C5954-P3/C5954-P3.minimised.mol

>  <scratch_subdir>  (355) 
/opt/xchem-fragalysis-2/maxwin/BulkDock/SCRATCH/511014/C5954-P3

>  <fragmenstein_runtime>  (355) 
9.993255615234375

>  <fragmenstein_outcome>  (355) 
too moved

>  <fragmenstein_mode>  (355) 
expansion

>  <fragmenstein_error>  (355) 


$$$$
C5954-P46
     RDKit          3D

 50 51  0  0  0  0  0  0  0  0999 V2000
  -12.4878  -23.6300   27.0692 C   0  0  0  0  0  0  0  0  0  0  0  0
  -12.6826  -24.9904   27.7681 C   0  0  0  0  0  0  0  0  0  0  0  0
  -11.5620  -25.2302   28.8764 C   0  0  0  0  0  0  0  0  0  0  0  0
  -11.6474  -24.4873   30.1532 N   0  0  0  0  0  0  0  0  0  0  0  0
  -10.6706  -25.0090   31.1214 C   0  0  0  0  0  0  0  0  0  0  0  0
  -10.6046  -24.3144   32.4865 C   0  0  0  0  0  0  0  0  0  0  0  0
  -11.6235  -23.2097   32.6578 C   0  0  0  0  0  0  0  0  0  0  0  0
  -11.6570  -22.3015   31.4457 C   0  0  0  0  0  0  0  0  0  0  0  0
  -11.7394  -23.0353   30.0979 C   0  0  0  0  0  0  0  0  0  0  0  0
  -13.2125  -26.1708   26.8274 N   0  0  0  0  0  0  0  0  0  0  0  0
  -11.8453  -26.0743   26.2954 C   0  0  0  0  0  0  0  0  0  0  0  0
  -13.8415  -27.1973   27.6214 C   0  0  0  0  0  0  0  0  0  0  0  0
  -13.3803  -28.1912   28.1255 O   0  0  0  0  0  0  0  0  0  0  0  0
  -15.3908  -27.0399   27.7567 C   0  0  0  0  0  0  0  0  0  0  0  0
  -15.8380  -26.9030   28.8622 O   0  0  0  0  0  0  0  0  0  0  0  0
  -16.0364  -27.0159   26.4874 N   0  0  0  0  0  0  0  0  0  0  0  0
  -17.4495  -26.7052   26.1171 C   0  0  0  0  0  0  0  0  0  0  0  0
  -17.7450  -27.1267   24.6958 C   0  0  0  0  0  0  0  0  0  0  0  0
  -17.0294  -28.4395   24.6922 C   0  0  0  0  0  0  0  0  0  0  0  0
  -17.9174  -29.6365   24.5038 C   0  0  0  0  0  0  0  0  0  0  0  0
  -19.0923  -29.6420   24.1823 O   0  0  0  0  0  0  0  0  0  0  0  0
  -17.2573  -30.7958   24.6939 O   0  0  0  0  0  0  0  0  0  0  0  0
  -16.4729  -28.3980   26.1004 C   0  0  0  0  0  0  0  0  0  0  0  0
  -12.8566  -22.8261   27.6974 H   0  0  0  0  0  0  0  0  0  0  0  0
  -11.4339  -23.4101   26.8738 H   0  0  0  0  0  0  0  0  0  0  0  0
  -13.0341  -23.6021   26.1216 H   0  0  0  0  0  0  0  0  0  0  0  0
  -13.5949  -24.8136   28.3496 H   0  0  0  0  0  0  0  0  0  0  0  0
  -11.5725  -26.3012   29.1152 H   0  0  0  0  0  0  0  0  0  0  0  0
  -10.5815  -25.0237   28.4325 H   0  0  0  0  0  0  0  0  0  0  0  0
  -10.8934  -26.0683   31.3056 H   0  0  0  0  0  0  0  0  0  0  0  0
   -9.6655  -24.9925   30.6813 H   0  0  0  0  0  0  0  0  0  0  0  0
  -10.7363  -25.0536   33.2859 H   0  0  0  0  0  0  0  0  0  0  0  0
   -9.6004  -23.8970   32.6221 H   0  0  0  0  0  0  0  0  0  0  0  0
  -11.4124  -22.6130   33.5438 H   0  0  0  0  0  0  0  0  0  0  0  0
  -12.6032  -23.6452   32.8506 H   0  0  0  0  0  0  0  0  0  0  0  0
  -12.5212  -21.6407   31.5501 H   0  0  0  0  0  0  0  0  0  0  0  0
  -10.7755  -21.6527   31.4581 H   0  0  0  0  0  0  0  0  0  0  0  0
  -12.7123  -22.7608   29.6863 H   0  0  0  0  0  0  0  0  0  0  0  0
  -11.0156  -22.6106   29.3958 H   0  0  0  0  0  0  0  0  0  0  0  0
  -11.5420  -25.1627   25.7778 H   0  0  0  0  0  0  0  0  0  0  0  0
  -11.0880  -26.5574   26.9217 H   0  0  0  0  0  0  0  0  0  0  0  0
  -11.8784  -26.7451   25.4298 H   0  0  0  0  0  0  0  0  0  0  0  0
  -18.1706  -27.0675   26.8697 H   0  0  0  0  0  0  0  0  0  0  0  0
  -17.5384  -25.6135   26.1779 H   0  0  0  0  0  0  0  0  0  0  0  0
  -17.2808  -26.4340   23.9841 H   0  0  0  0  0  0  0  0  0  0  0  0
  -18.8186  -27.1605   24.4931 H   0  0  0  0  0  0  0  0  0  0  0  0
  -16.2506  -28.4455   23.9227 H   0  0  0  0  0  0  0  0  0  0  0  0
  -17.9283  -31.4886   24.5108 H   0  0  0  0  0  0  0  0  0  0  0  0
  -15.5886  -29.0347   26.1799 H   0  0  0  0  0  0  0  0  0  0  0  0
  -17.1368  -28.8444   26.8656 H   0  0  0  0  0  0  0  0  0  0  0  0
  1  2  1  0
  2  3  1  0
  3  4  1  0
  4  5  1  0
  5  6  1  0
  6  7  1  0
  7  8  1  0
  8  9  1  0
  2 10  1  0
 10 11  1  0
 10 12  1  0
 12 13  2  0
 12 14  1  0
 14 15  2  0
 14 16  1  0
 16 17  1  0
 17 18  1  0
 18 19  1  0
 19 20  1  0
 20 21  2  0
 20 22  1  0
 19 23  1  0
  9  4  1  0
 23 16  1  0
  1 24  1  0
  1 25  1  0
  1 26  1  0
  2 27  1  0
  3 28  1  0
  3 29  1  0
  5 30  1  0
  5 31  1  0
  6 32  1  0
  6 33  1  0
  7 34  1  0
  7 35  1  0
  8 36  1  0
  8 37  1  0
  9 38  1  0
  9 39  1  0
 11 40  1  0
 11 41  1  0
 11 42  1  0
 17 43  1  0
 17 44  1  0
 18 45  1  0
 18 46  1  0
 19 47  1  0
 22 48  1  0
 23 49  1  0
 23 50  1  0
M  END
>  <Energy>  (356) 
195.51194096982698

>  <compound_id>  (356) 
5954

>  <target_id>  (356) 
1

>  <reference_id>  (356) 
46

>  <inspiration_ids>  (356) 
[3, 46]

>  <energy_score>  (356) 
92.38011934347912

>  <distance_score>  (356) 
5.447642620854217

>  <path>  (356) 
/opt/xchem-fragalysis-2/maxwin/BulkDock/SCRATCH/511014/C5954-P46/C5954-P46.minimised.mol

>  <scratch_subdir>  (356) 
/opt/xchem-fragalysis-2/maxwin/BulkDock/SCRATCH/511014/C5954-P46

>  <fragmenstein_runtime>  (356) 
16.236899852752686

>  <fragmenstein_outcome>  (356) 
too moved

>  <fragmenstein_mode>  (356) 
expansion

>  <fragmenstein_error>  (356) 


$$$$
C5955-P3
     RDKit          3D

 51 52  0  0  0  0  0  0  0  0999 V2000
  -11.8867  -20.8822   27.3612 C   0  0  0  0  0  0  0  0  0  0  0  0
  -11.1142  -22.0824   27.9636 C   0  0  0  0  0  0  0  0  0  0  0  0
  -11.4253  -22.0050   29.5177 C   0  0  0  0  0  0  0  0  0  0  0  0
  -10.3462  -21.8253   30.4967 N   0  0  0  0  0  0  0  0  0  0  0  0
  -10.7759  -20.8907   31.5720 C   0  0  0  0  0  0  0  0  0  0  0  0
  -10.2775  -21.2161   32.9743 C   0  0  0  0  0  0  0  0  0  0  0  0
   -8.8711  -21.7610   32.9740 C   0  0  0  0  0  0  0  0  0  0  0  0
   -8.7002  -22.8960   31.9721 C   0  0  0  0  0  0  0  0  0  0  0  0
   -9.8932  -23.0975   31.0505 C   0  0  0  0  0  0  0  0  0  0  0  0
  -11.6213  -23.4932   27.5283 N   0  0  0  0  0  0  0  0  0  0  0  0
  -10.8988  -23.1325   26.2688 C   0  0  0  0  0  0  0  0  0  0  0  0
  -12.9292  -23.9542   27.2219 C   0  0  0  0  0  0  0  0  0  0  0  0
  -13.9662  -23.3579   27.1310 O   0  0  0  0  0  0  0  0  0  0  0  0
  -12.9701  -25.5000   27.0641 C   0  0  0  0  0  0  0  0  0  0  0  0
  -12.4864  -26.0031   26.0850 O   0  0  0  0  0  0  0  0  0  0  0  0
  -13.6829  -26.0855   28.1515 N   0  0  0  0  0  0  0  0  0  0  0  0
  -13.9605  -27.5168   28.4784 C   0  0  0  0  0  0  0  0  0  0  0  0
  -14.6166  -28.2441   27.3244 C   0  0  0  0  0  0  0  0  0  0  0  0
  -15.6359  -27.2213   26.9410 C   0  0  0  0  0  0  0  0  0  0  0  0
  -15.6495  -26.9257   25.4396 C   0  0  0  0  0  0  0  0  0  0  0  0
  -16.5984  -25.8608   25.0910 C   0  0  0  0  0  0  0  0  0  0  0  0
  -17.3121  -24.9916   24.8036 N   0  0  0  0  0  0  0  0  0  0  0  0
  -15.1767  -26.0959   27.8602 C   0  0  0  0  0  0  0  0  0  0  0  0
  -11.6113  -19.9544   27.8707 H   0  0  0  0  0  0  0  0  0  0  0  0
  -11.7263  -20.7187   26.2981 H   0  0  0  0  0  0  0  0  0  0  0  0
  -12.9595  -21.0238   27.4493 H   0  0  0  0  0  0  0  0  0  0  0  0
  -10.0278  -21.9445   27.9268 H   0  0  0  0  0  0  0  0  0  0  0  0
  -12.0789  -21.1439   29.6406 H   0  0  0  0  0  0  0  0  0  0  0  0
  -11.9965  -22.8951   29.7902 H   0  0  0  0  0  0  0  0  0  0  0  0
  -10.4507  -19.8802   31.3026 H   0  0  0  0  0  0  0  0  0  0  0  0
  -11.8622  -20.8074   31.6370 H   0  0  0  0  0  0  0  0  0  0  0  0
  -10.9206  -21.9614   33.4339 H   0  0  0  0  0  0  0  0  0  0  0  0
  -10.3569  -20.3260   33.6010 H   0  0  0  0  0  0  0  0  0  0  0  0
   -8.1816  -20.9538   32.7201 H   0  0  0  0  0  0  0  0  0  0  0  0
   -8.5954  -22.0921   33.9797 H   0  0  0  0  0  0  0  0  0  0  0  0
   -8.4988  -23.8379   32.4880 H   0  0  0  0  0  0  0  0  0  0  0  0
   -7.8175  -22.6874   31.3641 H   0  0  0  0  0  0  0  0  0  0  0  0
   -9.5892  -23.7709   30.2487 H   0  0  0  0  0  0  0  0  0  0  0  0
  -10.6985  -23.6096   31.5822 H   0  0  0  0  0  0  0  0  0  0  0  0
  -11.5243  -22.5763   25.5593 H   0  0  0  0  0  0  0  0  0  0  0  0
  -10.7830  -24.0987   25.7611 H   0  0  0  0  0  0  0  0  0  0  0  0
   -9.8669  -22.7914   26.2990 H   0  0  0  0  0  0  0  0  0  0  0  0
  -12.9742  -27.9704   28.6434 H   0  0  0  0  0  0  0  0  0  0  0  0
  -14.4855  -27.6210   29.4420 H   0  0  0  0  0  0  0  0  0  0  0  0
  -15.0555  -29.1961   27.6372 H   0  0  0  0  0  0  0  0  0  0  0  0
  -13.8988  -28.4432   26.5221 H   0  0  0  0  0  0  0  0  0  0  0  0
  -16.6433  -27.5351   27.2446 H   0  0  0  0  0  0  0  0  0  0  0  0
  -15.9260  -27.8397   24.8997 H   0  0  0  0  0  0  0  0  0  0  0  0
  -14.6569  -26.6478   25.0766 H   0  0  0  0  0  0  0  0  0  0  0  0
  -15.7276  -26.0945   28.8176 H   0  0  0  0  0  0  0  0  0  0  0  0
  -15.4514  -25.1335   27.4185 H   0  0  0  0  0  0  0  0  0  0  0  0
  1  2  1  0
  2  3  1  0
  3  4  1  0
  4  5  1  0
  5  6  1  0
  6  7  1  0
  7  8  1  0
  8  9  1  0
  2 10  1  0
 10 11  1  0
 10 12  1  0
 12 13  2  0
 12 14  1  0
 14 15  2  0
 14 16  1  0
 16 17  1  0
 17 18  1  0
 18 19  1  0
 19 20  1  0
 20 21  1  0
 21 22  3  0
 19 23  1  0
  9  4  1  0
 23 16  1  0
  1 24  1  0
  1 25  1  0
  1 26  1  0
  2 27  1  0
  3 28  1  0
  3 29  1  0
  5 30  1  0
  5 31  1  0
  6 32  1  0
  6 33  1  0
  7 34  1  0
  7 35  1  0
  8 36  1  0
  8 37  1  0
  9 38  1  0
  9 39  1  0
 11 40  1  0
 11 41  1  0
 11 42  1  0
 17 43  1  0
 17 44  1  0
 18 45  1  0
 18 46  1  0
 19 47  1  0
 20 48  1  0
 20 49  1  0
 23 50  1  0
 23 51  1  0
M  END
>  <Energy>  (357) 
224.3396091730749

>  <compound_id>  (357) 
5955

>  <target_id>  (357) 
1

>  <reference_id>  (357) 
3

>  <inspiration_ids>  (357) 
[3, 46]

>  <energy_score>  (357) 
87.90954336917576

>  <distance_score>  (357) 
4.583985877102088

>  <path>  (357) 
/opt/xchem-fragalysis-2/maxwin/BulkDock/SCRATCH/511014/C5955-P3/C5955-P3.minimised.mol

>  <scratch_subdir>  (357) 
/opt/xchem-fragalysis-2/maxwin/BulkDock/SCRATCH/511014/C5955-P3

>  <fragmenstein_runtime>  (357) 
13.33090591430664

>  <fragmenstein_outcome>  (357) 
too moved

>  <fragmenstein_mode>  (357) 
expansion

>  <fragmenstein_error>  (357) 


$$$$
C5955-P46
     RDKit          3D

 51 52  0  0  0  0  0  0  0  0999 V2000
  -13.7266  -21.9065   31.5954 C   0  0  0  0  0  0  0  0  0  0  0  0
  -12.3660  -22.2866   30.9053 C   0  0  0  0  0  0  0  0  0  0  0  0
  -11.2034  -21.8954   31.9238 C   0  0  0  0  0  0  0  0  0  0  0  0
  -10.8832  -22.8445   32.9718 N   0  0  0  0  0  0  0  0  0  0  0  0
   -9.6219  -23.5618   32.9421 C   0  0  0  0  0  0  0  0  0  0  0  0
   -9.5669  -24.9437   33.5433 C   0  0  0  0  0  0  0  0  0  0  0  0
  -10.9053  -25.5739   33.6635 C   0  0  0  0  0  0  0  0  0  0  0  0
  -11.7878  -24.6333   34.4232 C   0  0  0  0  0  0  0  0  0  0  0  0
  -11.9449  -23.2469   33.8644 C   0  0  0  0  0  0  0  0  0  0  0  0
  -12.2944  -23.4976   29.7901 N   0  0  0  0  0  0  0  0  0  0  0  0
  -11.6718  -24.1853   30.8666 C   0  0  0  0  0  0  0  0  0  0  0  0
  -11.5150  -23.6289   28.6260 C   0  0  0  0  0  0  0  0  0  0  0  0
  -10.6402  -22.9373   28.1916 O   0  0  0  0  0  0  0  0  0  0  0  0
  -11.8034  -24.9475   27.8892 C   0  0  0  0  0  0  0  0  0  0  0  0
  -10.8823  -25.7195   27.9230 O   0  0  0  0  0  0  0  0  0  0  0  0
  -13.0249  -25.0220   27.2237 N   0  0  0  0  0  0  0  0  0  0  0  0
  -13.6506  -26.1520   26.4087 C   0  0  0  0  0  0  0  0  0  0  0  0
  -14.3573  -25.8439   25.0894 C   0  0  0  0  0  0  0  0  0  0  0  0
  -14.2416  -24.3880   25.2276 C   0  0  0  0  0  0  0  0  0  0  0  0
  -14.2561  -23.3731   24.1244 C   0  0  0  0  0  0  0  0  0  0  0  0
  -15.4969  -22.5992   24.1534 C   0  0  0  0  0  0  0  0  0  0  0  0
  -16.5097  -22.0766   23.9395 N   0  0  0  0  0  0  0  0  0  0  0  0
  -12.9129  -24.4146   25.9052 C   0  0  0  0  0  0  0  0  0  0  0  0
  -13.6000  -21.0377   32.2355 H   0  0  0  0  0  0  0  0  0  0  0  0
  -14.5245  -21.7299   30.8747 H   0  0  0  0  0  0  0  0  0  0  0  0
  -14.1551  -22.5316   32.3672 H   0  0  0  0  0  0  0  0  0  0  0  0
  -12.2557  -21.4744   30.1699 H   0  0  0  0  0  0  0  0  0  0  0  0
  -11.4877  -20.9641   32.4280 H   0  0  0  0  0  0  0  0  0  0  0  0
  -10.3403  -21.5875   31.3521 H   0  0  0  0  0  0  0  0  0  0  0  0
   -8.8306  -22.9408   33.3685 H   0  0  0  0  0  0  0  0  0  0  0  0
   -9.2873  -23.7732   31.9422 H   0  0  0  0  0  0  0  0  0  0  0  0
   -9.1443  -24.9337   34.5525 H   0  0  0  0  0  0  0  0  0  0  0  0
   -8.9075  -25.5408   32.9080 H   0  0  0  0  0  0  0  0  0  0  0  0
  -10.8116  -26.4755   34.2665 H   0  0  0  0  0  0  0  0  0  0  0  0
  -11.2977  -25.8870   32.6977 H   0  0  0  0  0  0  0  0  0  0  0  0
  -11.3439  -24.5663   35.4147 H   0  0  0  0  0  0  0  0  0  0  0  0
  -12.7829  -25.0602   34.4976 H   0  0  0  0  0  0  0  0  0  0  0  0
  -12.9090  -23.2769   33.3939 H   0  0  0  0  0  0  0  0  0  0  0  0
  -12.0939  -22.5110   34.6558 H   0  0  0  0  0  0  0  0  0  0  0  0
  -12.2004  -24.2907   31.7900 H   0  0  0  0  0  0  0  0  0  0  0  0
  -10.6057  -24.0608   30.8137 H   0  0  0  0  0  0  0  0  0  0  0  0
  -11.6820  -25.2401   30.5438 H   0  0  0  0  0  0  0  0  0  0  0  0
  -12.8418  -26.8668   26.2455 H   0  0  0  0  0  0  0  0  0  0  0  0
  -14.3446  -26.6500   27.0984 H   0  0  0  0  0  0  0  0  0  0  0  0
  -15.3877  -26.2117   25.0654 H   0  0  0  0  0  0  0  0  0  0  0  0
  -13.8209  -26.2757   24.2490 H   0  0  0  0  0  0  0  0  0  0  0  0
  -15.0797  -24.2141   25.8850 H   0  0  0  0  0  0  0  0  0  0  0  0
  -14.1728  -23.8596   23.1665 H   0  0  0  0  0  0  0  0  0  0  0  0
  -13.4078  -22.6822   24.1664 H   0  0  0  0  0  0  0  0  0  0  0  0
  -12.5717  -23.3895   26.0926 H   0  0  0  0  0  0  0  0  0  0  0  0
  -12.0767  -24.8496   25.3278 H   0  0  0  0  0  0  0  0  0  0  0  0
  1  2  1  0
  2  3  1  0
  3  4  1  0
  4  5  1  0
  5  6  1  0
  6  7  1  0
  7  8  1  0
  8  9  1  0
  2 10  1  0
 10 11  1  0
 10 12  1  0
 12 13  2  0
 12 14  1  0
 14 15  2  0
 14 16  1  0
 16 17  1  0
 17 18  1  0
 18 19  1  0
 19 20  1  0
 20 21  1  0
 21 22  3  0
 19 23  1  0
  9  4  1  0
 23 16  1  0
  1 24  1  0
  1 25  1  0
  1 26  1  0
  2 27  1  0
  3 28  1  0
  3 29  1  0
  5 30  1  0
  5 31  1  0
  6 32  1  0
  6 33  1  0
  7 34  1  0
  7 35  1  0
  8 36  1  0
  8 37  1  0
  9 38  1  0
  9 39  1  0
 11 40  1  0
 11 41  1  0
 11 42  1  0
 17 43  1  0
 17 44  1  0
 18 45  1  0
 18 46  1  0
 19 47  1  0
 20 48  1  0
 20 49  1  0
 23 50  1  0
 23 51  1  0
M  END
>  <Energy>  (358) 
292.62977958517888

>  <compound_id>  (358) 
5955

>  <target_id>  (358) 
1

>  <reference_id>  (358) 
46

>  <inspiration_ids>  (358) 
[3, 46]

>  <energy_score>  (358) 
156.19971378127684

>  <distance_score>  (358) 
2.802918751092393

>  <path>  (358) 
/opt/xchem-fragalysis-2/maxwin/BulkDock/SCRATCH/511014/C5955-P46/C5955-P46.minimised.mol

>  <scratch_subdir>  (358) 
/opt/xchem-fragalysis-2/maxwin/BulkDock/SCRATCH/511014/C5955-P46

>  <fragmenstein_runtime>  (358) 
9.782829999923706

>  <fragmenstein_outcome>  (358) 
too moved

>  <fragmenstein_mode>  (358) 
expansion

>  <fragmenstein_error>  (358) 


$$$$
C5956-P3
     RDKit          3D

 56 57  0  0  0  0  0  0  0  0999 V2000
  -18.9178  -21.6322   29.8835 C   0  0  0  0  0  0  0  0  0  0  0  0
  -18.5982  -22.2865   28.5455 C   0  0  0  0  0  0  0  0  0  0  0  0
  -19.3906  -23.5772   28.3394 C   0  0  0  0  0  0  0  0  0  0  0  0
  -18.5586  -24.8505   28.1943 C   0  0  0  0  0  0  0  0  0  0  0  0
  -17.7400  -24.9572   26.9538 C   0  0  0  0  0  0  0  0  0  0  0  0
  -16.5492  -25.6397   27.5776 C   0  0  0  0  0  0  0  0  0  0  0  0
  -16.0643  -24.8284   28.7520 N   0  0  0  0  0  0  0  0  0  0  0  0
  -14.8166  -25.3293   29.2158 C   0  0  0  0  0  0  0  0  0  0  0  0
  -14.5687  -26.1580   30.0491 O   0  0  0  0  0  0  0  0  0  0  0  0
  -13.6206  -24.7349   28.4054 C   0  0  0  0  0  0  0  0  0  0  0  0
  -13.5991  -24.9572   27.2242 O   0  0  0  0  0  0  0  0  0  0  0  0
  -12.6692  -24.0689   29.2454 N   0  0  0  0  0  0  0  0  0  0  0  0
  -11.6941  -25.0665   29.8085 C   0  0  0  0  0  0  0  0  0  0  0  0
  -11.3656  -23.3201   28.8914 C   0  0  0  0  0  0  0  0  0  0  0  0
  -11.7670  -22.1110   28.0069 C   0  0  0  0  0  0  0  0  0  0  0  0
  -10.3069  -22.7878   29.9448 C   0  0  0  0  0  0  0  0  0  0  0  0
  -10.7074  -22.1214   31.1863 N   0  0  0  0  0  0  0  0  0  0  0  0
  -11.1946  -20.7576   30.9451 C   0  0  0  0  0  0  0  0  0  0  0  0
  -11.0494  -19.7447   32.0704 C   0  0  0  0  0  0  0  0  0  0  0  0
  -10.9279  -20.4216   33.4087 C   0  0  0  0  0  0  0  0  0  0  0  0
   -9.7469  -21.3706   33.4194 C   0  0  0  0  0  0  0  0  0  0  0  0
   -9.5944  -22.1912   32.1461 C   0  0  0  0  0  0  0  0  0  0  0  0
  -17.4677  -25.0913   29.2298 C   0  0  0  0  0  0  0  0  0  0  0  0
  -18.6575  -22.2925   30.7167 H   0  0  0  0  0  0  0  0  0  0  0  0
  -19.9832  -21.3902   29.9557 H   0  0  0  0  0  0  0  0  0  0  0  0
  -18.3540  -20.7024   30.0024 H   0  0  0  0  0  0  0  0  0  0  0  0
  -17.5210  -22.4596   28.4769 H   0  0  0  0  0  0  0  0  0  0  0  0
  -18.8518  -21.5851   27.7432 H   0  0  0  0  0  0  0  0  0  0  0  0
  -20.0919  -23.7222   29.1713 H   0  0  0  0  0  0  0  0  0  0  0  0
  -20.0126  -23.4685   27.4412 H   0  0  0  0  0  0  0  0  0  0  0  0
  -19.2628  -25.6931   28.2395 H   0  0  0  0  0  0  0  0  0  0  0  0
  -18.2118  -25.5615   26.1741 H   0  0  0  0  0  0  0  0  0  0  0  0
  -17.4661  -23.9837   26.5333 H   0  0  0  0  0  0  0  0  0  0  0  0
  -16.6955  -26.7060   27.8282 H   0  0  0  0  0  0  0  0  0  0  0  0
  -15.7579  -25.6597   26.8213 H   0  0  0  0  0  0  0  0  0  0  0  0
  -11.2319  -24.7693   30.7537 H   0  0  0  0  0  0  0  0  0  0  0  0
  -12.2938  -25.9187   30.1523 H   0  0  0  0  0  0  0  0  0  0  0  0
  -11.0466  -25.5686   29.0788 H   0  0  0  0  0  0  0  0  0  0  0  0
  -10.8669  -23.9051   28.1092 H   0  0  0  0  0  0  0  0  0  0  0  0
  -12.2062  -21.2936   28.5683 H   0  0  0  0  0  0  0  0  0  0  0  0
  -10.8851  -21.7065   27.4989 H   0  0  0  0  0  0  0  0  0  0  0  0
  -12.4791  -22.4018   27.2271 H   0  0  0  0  0  0  0  0  0  0  0  0
   -9.6623  -23.6352   30.2104 H   0  0  0  0  0  0  0  0  0  0  0  0
   -9.6358  -22.1093   29.4089 H   0  0  0  0  0  0  0  0  0  0  0  0
  -12.2537  -20.8374   30.7357 H   0  0  0  0  0  0  0  0  0  0  0  0
  -10.7676  -20.3082   30.0424 H   0  0  0  0  0  0  0  0  0  0  0  0
  -10.1708  -19.1196   31.8907 H   0  0  0  0  0  0  0  0  0  0  0  0
  -11.9122  -19.0706   32.0767 H   0  0  0  0  0  0  0  0  0  0  0  0
  -11.8271  -20.9652   33.6316 H   0  0  0  0  0  0  0  0  0  0  0  0
  -10.8858  -19.6856   34.2062 H   0  0  0  0  0  0  0  0  0  0  0  0
   -9.8054  -22.0249   34.2938 H   0  0  0  0  0  0  0  0  0  0  0  0
   -8.8248  -20.7910   33.5259 H   0  0  0  0  0  0  0  0  0  0  0  0
   -8.6572  -21.8924   31.6615 H   0  0  0  0  0  0  0  0  0  0  0  0
   -9.4483  -23.2389   32.4411 H   0  0  0  0  0  0  0  0  0  0  0  0
  -17.5236  -26.1021   29.6703 H   0  0  0  0  0  0  0  0  0  0  0  0
  -17.6020  -24.4353   30.0991 H   0  0  0  0  0  0  0  0  0  0  0  0
  1  2  1  0
  2  3  1  0
  3  4  1  0
  4  5  1  0
  5  6  1  0
  6  7  1  0
  7  8  1  0
  8  9  2  0
  8 10  1  0
 10 11  2  0
 10 12  1  0
 12 13  1  0
 12 14  1  0
 14 15  1  0
 14 16  1  0
 16 17  1  0
 17 18  1  0
 18 19  1  0
 19 20  1  0
 20 21  1  0
 21 22  1  0
  7 23  1  0
 23  4  1  0
 22 17  1  0
  1 24  1  0
  1 25  1  0
  1 26  1  0
  2 27  1  0
  2 28  1  0
  3 29  1  0
  3 30  1  0
  4 31  1  0
  5 32  1  0
  5 33  1  0
  6 34  1  0
  6 35  1  0
 13 36  1  0
 13 37  1  0
 13 38  1  0
 14 39  1  0
 15 40  1  0
 15 41  1  0
 15 42  1  0
 16 43  1  0
 16 44  1  0
 18 45  1  0
 18 46  1  0
 19 47  1  0
 19 48  1  0
 20 49  1  0
 20 50  1  0
 21 51  1  0
 21 52  1  0
 22 53  1  0
 22 54  1  0
 23 55  1  0
 23 56  1  0
M  END
>  <Energy>  (359) 
233.52523408476887

>  <compound_id>  (359) 
5956

>  <target_id>  (359) 
1

>  <reference_id>  (359) 
3

>  <inspiration_ids>  (359) 
[3, 46]

>  <energy_score>  (359) 
94.69527287872302

>  <distance_score>  (359) 
4.350240561059927

>  <path>  (359) 
/opt/xchem-fragalysis-2/maxwin/BulkDock/SCRATCH/511014/C5956-P3/C5956-P3.minimised.mol

>  <scratch_subdir>  (359) 
/opt/xchem-fragalysis-2/maxwin/BulkDock/SCRATCH/511014/C5956-P3

>  <fragmenstein_runtime>  (359) 
11.119560956954956

>  <fragmenstein_outcome>  (359) 
too moved

>  <fragmenstein_mode>  (359) 
expansion

>  <fragmenstein_error>  (359) 


$$$$
C5956-P46
     RDKit          3D

 56 57  0  0  0  0  0  0  0  0999 V2000
  -20.2027  -25.8723   24.9701 C   0  0  0  0  0  0  0  0  0  0  0  0
  -19.4202  -25.5811   26.2412 C   0  0  0  0  0  0  0  0  0  0  0  0
  -18.0903  -26.3358   26.3277 C   0  0  0  0  0  0  0  0  0  0  0  0
  -17.1046  -26.0326   25.1979 C   0  0  0  0  0  0  0  0  0  0  0  0
  -16.7286  -24.6139   24.9831 C   0  0  0  0  0  0  0  0  0  0  0  0
  -15.2307  -24.7917   24.8387 C   0  0  0  0  0  0  0  0  0  0  0  0
  -14.6258  -25.6938   25.8731 N   0  0  0  0  0  0  0  0  0  0  0  0
  -13.2205  -25.7607   25.7030 C   0  0  0  0  0  0  0  0  0  0  0  0
  -12.5468  -26.5187   25.0564 O   0  0  0  0  0  0  0  0  0  0  0  0
  -12.3547  -24.7266   26.4236 C   0  0  0  0  0  0  0  0  0  0  0  0
  -11.8435  -23.9340   25.6761 O   0  0  0  0  0  0  0  0  0  0  0  0
  -12.2006  -24.9080   27.8451 N   0  0  0  0  0  0  0  0  0  0  0  0
  -11.1022  -25.8913   28.1202 C   0  0  0  0  0  0  0  0  0  0  0  0
  -11.4038  -24.0545   28.9082 C   0  0  0  0  0  0  0  0  0  0  0  0
  -12.1213  -22.6896   28.8650 C   0  0  0  0  0  0  0  0  0  0  0  0
  -11.0913  -24.5154   30.4062 C   0  0  0  0  0  0  0  0  0  0  0  0
  -11.5453  -23.7543   31.5626 N   0  0  0  0  0  0  0  0  0  0  0  0
  -11.1320  -22.3895   31.8037 C   0  0  0  0  0  0  0  0  0  0  0  0
  -12.2592  -21.7354   32.5696 C   0  0  0  0  0  0  0  0  0  0  0  0
  -12.6286  -22.4653   33.8388 C   0  0  0  0  0  0  0  0  0  0  0  0
  -12.2174  -23.9297   33.9240 C   0  0  0  0  0  0  0  0  0  0  0  0
  -11.3465  -24.4950   32.8094 C   0  0  0  0  0  0  0  0  0  0  0  0
  -15.7154  -26.6081   25.3947 C   0  0  0  0  0  0  0  0  0  0  0  0
  -19.6840  -25.4940   24.0843 H   0  0  0  0  0  0  0  0  0  0  0  0
  -21.1825  -25.3858   25.0127 H   0  0  0  0  0  0  0  0  0  0  0  0
  -20.3636  -26.9478   24.8452 H   0  0  0  0  0  0  0  0  0  0  0  0
  -20.0355  -25.8683   27.1024 H   0  0  0  0  0  0  0  0  0  0  0  0
  -19.2525  -24.5018   26.3263 H   0  0  0  0  0  0  0  0  0  0  0  0
  -17.6383  -26.1310   27.3017 H   0  0  0  0  0  0  0  0  0  0  0  0
  -18.2970  -27.4143   26.3263 H   0  0  0  0  0  0  0  0  0  0  0  0
  -17.5172  -26.4592   24.2740 H   0  0  0  0  0  0  0  0  0  0  0  0
  -17.2100  -24.1874   24.1020 H   0  0  0  0  0  0  0  0  0  0  0  0
  -17.0079  -23.9795   25.8159 H   0  0  0  0  0  0  0  0  0  0  0  0
  -14.7345  -23.8178   24.9137 H   0  0  0  0  0  0  0  0  0  0  0  0
  -14.9322  -25.1381   23.8366 H   0  0  0  0  0  0  0  0  0  0  0  0
  -11.0362  -26.5464   27.2400 H   0  0  0  0  0  0  0  0  0  0  0  0
  -11.4370  -26.5901   28.8958 H   0  0  0  0  0  0  0  0  0  0  0  0
  -10.0680  -25.5931   28.2774 H   0  0  0  0  0  0  0  0  0  0  0  0
  -10.4501  -23.7543   28.4356 H   0  0  0  0  0  0  0  0  0  0  0  0
  -12.5143  -22.4969   27.8684 H   0  0  0  0  0  0  0  0  0  0  0  0
  -12.9554  -22.6260   29.5585 H   0  0  0  0  0  0  0  0  0  0  0  0
  -11.4273  -21.8676   29.0474 H   0  0  0  0  0  0  0  0  0  0  0  0
  -11.5258  -25.5085   30.5272 H   0  0  0  0  0  0  0  0  0  0  0  0
  -10.0098  -24.6875   30.4853 H   0  0  0  0  0  0  0  0  0  0  0  0
  -10.2131  -22.3403   32.3919 H   0  0  0  0  0  0  0  0  0  0  0  0
  -10.9627  -21.7921   30.9147 H   0  0  0  0  0  0  0  0  0  0  0  0
  -11.9754  -20.7117   32.8260 H   0  0  0  0  0  0  0  0  0  0  0  0
  -13.1483  -21.6820   31.9322 H   0  0  0  0  0  0  0  0  0  0  0  0
  -13.7136  -22.3837   33.9828 H   0  0  0  0  0  0  0  0  0  0  0  0
  -12.1920  -21.9206   34.6742 H   0  0  0  0  0  0  0  0  0  0  0  0
  -13.1320  -24.5055   34.0033 H   0  0  0  0  0  0  0  0  0  0  0  0
  -11.7114  -24.1241   34.8685 H   0  0  0  0  0  0  0  0  0  0  0  0
  -10.2884  -24.4717   33.1036 H   0  0  0  0  0  0  0  0  0  0  0  0
  -11.5880  -25.5561   32.6884 H   0  0  0  0  0  0  0  0  0  0  0  0
  -15.3814  -27.0878   24.4624 H   0  0  0  0  0  0  0  0  0  0  0  0
  -15.7372  -27.4311   26.1213 H   0  0  0  0  0  0  0  0  0  0  0  0
  1  2  1  0
  2  3  1  0
  3  4  1  0
  4  5  1  0
  5  6  1  0
  6  7  1  0
  7  8  1  0
  8  9  2  0
  8 10  1  0
 10 11  2  0
 10 12  1  0
 12 13  1  0
 12 14  1  0
 14 15  1  0
 14 16  1  0
 16 17  1  0
 17 18  1  0
 18 19  1  0
 19 20  1  0
 20 21  1  0
 21 22  1  0
  7 23  1  0
 23  4  1  0
 22 17  1  0
  1 24  1  0
  1 25  1  0
  1 26  1  0
  2 27  1  0
  2 28  1  0
  3 29  1  0
  3 30  1  0
  4 31  1  0
  5 32  1  0
  5 33  1  0
  6 34  1  0
  6 35  1  0
 13 36  1  0
 13 37  1  0
 13 38  1  0
 14 39  1  0
 15 40  1  0
 15 41  1  0
 15 42  1  0
 16 43  1  0
 16 44  1  0
 18 45  1  0
 18 46  1  0
 19 47  1  0
 19 48  1  0
 20 49  1  0
 20 50  1  0
 21 51  1  0
 21 52  1  0
 22 53  1  0
 22 54  1  0
 23 55  1  0
 23 56  1  0
M  END
>  <Energy>  (360) 
246.88826363419537

>  <compound_id>  (360) 
5956

>  <target_id>  (360) 
1

>  <reference_id>  (360) 
46

>  <inspiration_ids>  (360) 
[3, 46]

>  <energy_score>  (360) 
108.05830242814807

>  <distance_score>  (360) 
4.266693747687092

>  <path>  (360) 
/opt/xchem-fragalysis-2/maxwin/BulkDock/SCRATCH/511014/C5956-P46/C5956-P46.minimised.mol

>  <scratch_subdir>  (360) 
/opt/xchem-fragalysis-2/maxwin/BulkDock/SCRATCH/511014/C5956-P46

>  <fragmenstein_runtime>  (360) 
15.668800830841064

>  <fragmenstein_outcome>  (360) 
too moved

>  <fragmenstein_mode>  (360) 
expansion

>  <fragmenstein_error>  (360) 


$$$$
C5957-P3
     RDKit          3D

 51 52  0  0  0  0  0  0  0  0999 V2000
  -10.3236  -21.6532   27.8431 C   0  0  0  0  0  0  0  0  0  0  0  0
  -11.5801  -22.2755   28.3707 C   0  0  0  0  0  0  0  0  0  0  0  0
  -11.4792  -22.1776   29.9356 C   0  0  0  0  0  0  0  0  0  0  0  0
  -10.3140  -21.8535   30.7590 N   0  0  0  0  0  0  0  0  0  0  0  0
  -10.6985  -20.9279   31.8619 C   0  0  0  0  0  0  0  0  0  0  0  0
  -10.2102  -21.3248   33.2411 C   0  0  0  0  0  0  0  0  0  0  0  0
   -8.7466  -21.6757   33.1896 C   0  0  0  0  0  0  0  0  0  0  0  0
   -8.4598  -22.7297   32.1311 C   0  0  0  0  0  0  0  0  0  0  0  0
   -9.6473  -23.0571   31.2492 C   0  0  0  0  0  0  0  0  0  0  0  0
  -11.9904  -23.6937   27.7090 N   0  0  0  0  0  0  0  0  0  0  0  0
  -12.4141  -22.8009   26.5867 C   0  0  0  0  0  0  0  0  0  0  0  0
  -12.7619  -24.4607   28.6260 C   0  0  0  0  0  0  0  0  0  0  0  0
  -13.9517  -24.5159   28.7908 O   0  0  0  0  0  0  0  0  0  0  0  0
  -11.8585  -25.4127   29.4211 C   0  0  0  0  0  0  0  0  0  0  0  0
  -12.6797  -26.3378   30.3325 C   0  0  0  0  0  0  0  0  0  0  0  0
  -13.4519  -27.3741   29.5178 C   0  0  0  0  0  0  0  0  0  0  0  0
  -14.4239  -28.2072   30.3317 C   0  0  0  0  0  0  0  0  0  0  0  0
  -14.6918  -29.3858   29.4092 C   0  0  0  0  0  0  0  0  0  0  0  0
  -13.5104  -29.4179   28.4463 C   0  0  0  0  0  0  0  0  0  0  0  0
  -12.5663  -28.4018   28.9351 N   0  0  0  0  0  0  0  0  0  0  0  0
  -10.6013  -20.6374   27.5444 H   0  0  0  0  0  0  0  0  0  0  0  0
   -9.5239  -21.5263   28.5650 H   0  0  0  0  0  0  0  0  0  0  0  0
   -9.9260  -22.2209   27.0056 H   0  0  0  0  0  0  0  0  0  0  0  0
  -12.3833  -21.5419   28.2040 H   0  0  0  0  0  0  0  0  0  0  0  0
  -11.9242  -23.0561   30.3505 H   0  0  0  0  0  0  0  0  0  0  0  0
  -12.1272  -21.3199   30.1123 H   0  0  0  0  0  0  0  0  0  0  0  0
  -10.2996  -19.9372   31.6184 H   0  0  0  0  0  0  0  0  0  0  0  0
  -11.7741  -20.7623   31.9394 H   0  0  0  0  0  0  0  0  0  0  0  0
  -10.7587  -22.1828   33.6100 H   0  0  0  0  0  0  0  0  0  0  0  0
  -10.4128  -20.5112   33.9380 H   0  0  0  0  0  0  0  0  0  0  0  0
   -8.1955  -20.7684   32.9356 H   0  0  0  0  0  0  0  0  0  0  0  0
   -8.3963  -22.0033   34.1711 H   0  0  0  0  0  0  0  0  0  0  0  0
   -7.6429  -22.3910   31.5002 H   0  0  0  0  0  0  0  0  0  0  0  0
   -8.1119  -23.6559   32.5889 H   0  0  0  0  0  0  0  0  0  0  0  0
  -10.3353  -23.6986   31.8078 H   0  0  0  0  0  0  0  0  0  0  0  0
   -9.2838  -23.6485   30.4060 H   0  0  0  0  0  0  0  0  0  0  0  0
  -13.3392  -22.2365   26.7730 H   0  0  0  0  0  0  0  0  0  0  0  0
  -11.6484  -22.2717   26.0149 H   0  0  0  0  0  0  0  0  0  0  0  0
  -12.7791  -23.5337   25.8517 H   0  0  0  0  0  0  0  0  0  0  0  0
  -11.2824  -26.0072   28.7029 H   0  0  0  0  0  0  0  0  0  0  0  0
  -11.1414  -24.8708   30.0260 H   0  0  0  0  0  0  0  0  0  0  0  0
  -13.3800  -25.7555   30.9414 H   0  0  0  0  0  0  0  0  0  0  0  0
  -12.0043  -26.8404   31.0352 H   0  0  0  0  0  0  0  0  0  0  0  0
  -14.0013  -26.8930   28.7003 H   0  0  0  0  0  0  0  0  0  0  0  0
  -15.3411  -27.6631   30.5776 H   0  0  0  0  0  0  0  0  0  0  0  0
  -13.9698  -28.5543   31.2682 H   0  0  0  0  0  0  0  0  0  0  0  0
  -14.7773  -30.3146   29.9830 H   0  0  0  0  0  0  0  0  0  0  0  0
  -15.6273  -29.2417   28.8566 H   0  0  0  0  0  0  0  0  0  0  0  0
  -13.8382  -29.1661   27.4314 H   0  0  0  0  0  0  0  0  0  0  0  0
  -13.0415  -30.4062   28.4115 H   0  0  0  0  0  0  0  0  0  0  0  0
  -12.0182  -28.8213   29.6881 H   0  0  0  0  0  0  0  0  0  0  0  0
  1  2  1  0
  2  3  1  0
  3  4  1  0
  4  5  1  0
  5  6  1  0
  6  7  1  0
  7  8  1  0
  8  9  1  0
  2 10  1  0
 10 11  1  0
 10 12  1  0
 12 13  2  0
 12 14  1  0
 14 15  1  0
 15 16  1  0
 16 17  1  0
 17 18  1  0
 18 19  1  0
 19 20  1  0
  9  4  1  0
 20 16  1  0
  1 21  1  0
  1 22  1  0
  1 23  1  0
  2 24  1  0
  3 25  1  0
  3 26  1  0
  5 27  1  0
  5 28  1  0
  6 29  1  0
  6 30  1  0
  7 31  1  0
  7 32  1  0
  8 33  1  0
  8 34  1  0
  9 35  1  0
  9 36  1  0
 11 37  1  0
 11 38  1  0
 11 39  1  0
 14 40  1  0
 14 41  1  0
 15 42  1  0
 15 43  1  0
 16 44  1  0
 17 45  1  0
 17 46  1  0
 18 47  1  0
 18 48  1  0
 19 49  1  0
 19 50  1  0
 20 51  1  0
M  END
>  <Energy>  (361) 
127.71563890388893

>  <compound_id>  (361) 
5957

>  <target_id>  (361) 
1

>  <reference_id>  (361) 
3

>  <inspiration_ids>  (361) 
[3, 46]

>  <energy_score>  (361) 
68.48792653733169

>  <distance_score>  (361) 
3.8026327655855807

>  <path>  (361) 
/opt/xchem-fragalysis-2/maxwin/BulkDock/SCRATCH/511014/C5957-P3/C5957-P3.minimised.mol

>  <scratch_subdir>  (361) 
/opt/xchem-fragalysis-2/maxwin/BulkDock/SCRATCH/511014/C5957-P3

>  <fragmenstein_runtime>  (361) 
6.82254958152771

>  <fragmenstein_outcome>  (361) 
too moved

>  <fragmenstein_mode>  (361) 
expansion

>  <fragmenstein_error>  (361) 


$$$$
C5957-P46
     RDKit          3D

 51 52  0  0  0  0  0  0  0  0999 V2000
  -10.9631  -23.6309   28.2394 C   0  0  0  0  0  0  0  0  0  0  0  0
  -11.5294  -24.7649   29.1202 C   0  0  0  0  0  0  0  0  0  0  0  0
  -11.0120  -24.7715   30.6415 C   0  0  0  0  0  0  0  0  0  0  0  0
  -11.6185  -23.8674   31.6045 N   0  0  0  0  0  0  0  0  0  0  0  0
  -11.3423  -24.3088   32.9725 C   0  0  0  0  0  0  0  0  0  0  0  0
  -12.3195  -23.6864   33.9538 C   0  0  0  0  0  0  0  0  0  0  0  0
  -12.6678  -22.2316   33.7332 C   0  0  0  0  0  0  0  0  0  0  0  0
  -12.4125  -21.7175   32.3392 C   0  0  0  0  0  0  0  0  0  0  0  0
  -11.3707  -22.4496   31.5211 C   0  0  0  0  0  0  0  0  0  0  0  0
  -11.8270  -26.1817   28.4056 N   0  0  0  0  0  0  0  0  0  0  0  0
  -10.4265  -26.4285   28.7898 C   0  0  0  0  0  0  0  0  0  0  0  0
  -12.4209  -25.9731   27.1125 C   0  0  0  0  0  0  0  0  0  0  0  0
  -11.9122  -25.8574   26.0268 O   0  0  0  0  0  0  0  0  0  0  0  0
  -13.9291  -25.8875   27.2338 C   0  0  0  0  0  0  0  0  0  0  0  0
  -14.6525  -27.1790   27.6261 C   0  0  0  0  0  0  0  0  0  0  0  0
  -15.6980  -27.7920   26.6668 C   0  0  0  0  0  0  0  0  0  0  0  0
  -16.9067  -26.9399   26.3062 C   0  0  0  0  0  0  0  0  0  0  0  0
  -16.5224  -26.2214   25.0209 C   0  0  0  0  0  0  0  0  0  0  0  0
  -15.3690  -27.0359   24.4519 C   0  0  0  0  0  0  0  0  0  0  0  0
  -15.2198  -28.1751   25.3451 N   0  0  0  0  0  0  0  0  0  0  0  0
  -11.4216  -22.6719   28.4971 H   0  0  0  0  0  0  0  0  0  0  0  0
   -9.8912  -23.5129   28.3710 H   0  0  0  0  0  0  0  0  0  0  0  0
  -11.1526  -23.7799   27.1754 H   0  0  0  0  0  0  0  0  0  0  0  0
  -12.5623  -24.4196   29.2305 H   0  0  0  0  0  0  0  0  0  0  0  0
   -9.9203  -24.6883   30.6822 H   0  0  0  0  0  0  0  0  0  0  0  0
  -11.2476  -25.7761   31.0128 H   0  0  0  0  0  0  0  0  0  0  0  0
  -11.4285  -25.3955   33.0706 H   0  0  0  0  0  0  0  0  0  0  0  0
  -10.3044  -24.0751   33.2361 H   0  0  0  0  0  0  0  0  0  0  0  0
  -11.9192  -23.8090   34.9560 H   0  0  0  0  0  0  0  0  0  0  0  0
  -13.2478  -24.2490   33.9560 H   0  0  0  0  0  0  0  0  0  0  0  0
  -12.1304  -21.6061   34.4448 H   0  0  0  0  0  0  0  0  0  0  0  0
  -13.7257  -22.0675   33.9750 H   0  0  0  0  0  0  0  0  0  0  0  0
  -13.3617  -21.7220   31.7942 H   0  0  0  0  0  0  0  0  0  0  0  0
  -12.0670  -20.6932   32.4515 H   0  0  0  0  0  0  0  0  0  0  0  0
  -10.3916  -22.1875   31.9225 H   0  0  0  0  0  0  0  0  0  0  0  0
  -11.4281  -22.0716   30.4996 H   0  0  0  0  0  0  0  0  0  0  0  0
  -10.0716  -27.0617   27.9746 H   0  0  0  0  0  0  0  0  0  0  0  0
   -9.6578  -25.6581   28.7984 H   0  0  0  0  0  0  0  0  0  0  0  0
  -10.3913  -27.0600   29.6834 H   0  0  0  0  0  0  0  0  0  0  0  0
  -14.3102  -25.4329   26.3213 H   0  0  0  0  0  0  0  0  0  0  0  0
  -14.0874  -25.1396   28.0089 H   0  0  0  0  0  0  0  0  0  0  0  0
  -13.9186  -27.9557   27.8721 H   0  0  0  0  0  0  0  0  0  0  0  0
  -15.2026  -26.9852   28.5542 H   0  0  0  0  0  0  0  0  0  0  0  0
  -16.0631  -28.6991   27.1655 H   0  0  0  0  0  0  0  0  0  0  0  0
  -17.2390  -26.2724   27.1002 H   0  0  0  0  0  0  0  0  0  0  0  0
  -17.7590  -27.5992   26.0886 H   0  0  0  0  0  0  0  0  0  0  0  0
  -17.3719  -26.1862   24.3303 H   0  0  0  0  0  0  0  0  0  0  0  0
  -16.2168  -25.1891   25.2178 H   0  0  0  0  0  0  0  0  0  0  0  0
  -14.4538  -26.4398   24.4130 H   0  0  0  0  0  0  0  0  0  0  0  0
  -15.5862  -27.3738   23.4339 H   0  0  0  0  0  0  0  0  0  0  0  0
  -14.2801  -28.5815   25.3485 H   0  0  0  0  0  0  0  0  0  0  0  0
  1  2  1  0
  2  3  1  0
  3  4  1  0
  4  5  1  0
  5  6  1  0
  6  7  1  0
  7  8  1  0
  8  9  1  0
  2 10  1  0
 10 11  1  0
 10 12  1  0
 12 13  2  0
 12 14  1  0
 14 15  1  0
 15 16  1  0
 16 17  1  0
 17 18  1  0
 18 19  1  0
 19 20  1  0
  9  4  1  0
 20 16  1  0
  1 21  1  0
  1 22  1  0
  1 23  1  0
  2 24  1  0
  3 25  1  0
  3 26  1  0
  5 27  1  0
  5 28  1  0
  6 29  1  0
  6 30  1  0
  7 31  1  0
  7 32  1  0
  8 33  1  0
  8 34  1  0
  9 35  1  0
  9 36  1  0
 11 37  1  0
 11 38  1  0
 11 39  1  0
 14 40  1  0
 14 41  1  0
 15 42  1  0
 15 43  1  0
 16 44  1  0
 17 45  1  0
 17 46  1  0
 18 47  1  0
 18 48  1  0
 19 49  1  0
 19 50  1  0
 20 51  1  0
M  END
>  <Energy>  (362) 
122.53094822764648

>  <compound_id>  (362) 
5957

>  <target_id>  (362) 
1

>  <reference_id>  (362) 
46

>  <inspiration_ids>  (362) 
[3, 46]

>  <energy_score>  (362) 
63.303235861089405

>  <distance_score>  (362) 
4.040794783918445

>  <path>  (362) 
/opt/xchem-fragalysis-2/maxwin/BulkDock/SCRATCH/511014/C5957-P46/C5957-P46.minimised.mol

>  <scratch_subdir>  (362) 
/opt/xchem-fragalysis-2/maxwin/BulkDock/SCRATCH/511014/C5957-P46

>  <fragmenstein_runtime>  (362) 
8.643431663513184

>  <fragmenstein_outcome>  (362) 
too moved

>  <fragmenstein_mode>  (362) 
expansion

>  <fragmenstein_error>  (362) 


$$$$
C5959-P3
     RDKit          3D

 53 54  0  0  0  0  0  0  0  0999 V2000
  -16.3624  -24.0813   30.3330 C   0  0  0  0  0  0  0  0  0  0  0  0
  -15.8036  -25.3999   30.8283 C   0  0  0  0  0  0  0  0  0  0  0  0
  -14.3060  -25.5905   30.6556 N   0  0  0  0  0  0  0  0  0  0  0  0
  -13.8987  -26.8180   31.4618 C   0  0  0  0  0  0  0  0  0  0  0  0
  -12.3862  -27.0754   31.6664 C   0  0  0  0  0  0  0  0  0  0  0  0
  -11.4969  -25.8364   31.6067 C   0  0  0  0  0  0  0  0  0  0  0  0
  -12.1874  -27.6433   33.0021 C   0  0  0  0  0  0  0  0  0  0  0  0
  -11.9782  -27.9362   34.1005 N   0  0  0  0  0  0  0  0  0  0  0  0
  -13.7996  -25.6418   29.0090 S   0  0  0  0  0  0  0  0  0  0  0  0
  -12.6796  -26.5460   28.8796 O   0  0  0  0  0  0  0  0  0  0  0  0
  -14.9617  -25.7889   28.1669 O   0  0  0  0  0  0  0  0  0  0  0  0
  -13.1795  -24.0898   28.7943 N   0  0  0  0  0  0  0  0  0  0  0  0
  -13.0435  -23.5979   27.3815 C   0  0  0  0  0  0  0  0  0  0  0  0
  -11.8479  -22.5855   27.4031 C   0  0  0  0  0  0  0  0  0  0  0  0
  -11.6651  -22.3371   28.8823 C   0  0  0  0  0  0  0  0  0  0  0  0
  -10.5412  -21.6097   29.5538 C   0  0  0  0  0  0  0  0  0  0  0  0
  -10.6052  -21.8024   31.0174 N   0  0  0  0  0  0  0  0  0  0  0  0
   -9.4249  -22.5271   31.4671 C   0  0  0  0  0  0  0  0  0  0  0  0
   -9.2918  -22.7196   32.9512 C   0  0  0  0  0  0  0  0  0  0  0  0
   -9.5085  -21.4465   33.7125 C   0  0  0  0  0  0  0  0  0  0  0  0
  -10.7584  -20.7173   33.2800 C   0  0  0  0  0  0  0  0  0  0  0  0
  -10.8772  -20.5719   31.7686 C   0  0  0  0  0  0  0  0  0  0  0  0
  -11.8862  -23.7393   29.3813 C   0  0  0  0  0  0  0  0  0  0  0  0
  -16.0570  -23.2554   30.9766 H   0  0  0  0  0  0  0  0  0  0  0  0
  -17.4569  -24.1131   30.3694 H   0  0  0  0  0  0  0  0  0  0  0  0
  -16.0786  -23.8471   29.3061 H   0  0  0  0  0  0  0  0  0  0  0  0
  -16.3249  -26.2356   30.3450 H   0  0  0  0  0  0  0  0  0  0  0  0
  -16.0407  -25.4667   31.8975 H   0  0  0  0  0  0  0  0  0  0  0  0
  -14.3688  -26.7079   32.4497 H   0  0  0  0  0  0  0  0  0  0  0  0
  -14.3645  -27.7066   31.0142 H   0  0  0  0  0  0  0  0  0  0  0  0
  -12.0351  -27.8090   30.9317 H   0  0  0  0  0  0  0  0  0  0  0  0
  -10.7725  -25.7493   32.4223 H   0  0  0  0  0  0  0  0  0  0  0  0
  -10.9643  -25.7843   30.6593 H   0  0  0  0  0  0  0  0  0  0  0  0
  -12.1336  -25.0039   31.7220 H   0  0  0  0  0  0  0  0  0  0  0  0
  -12.8273  -24.4135   26.6842 H   0  0  0  0  0  0  0  0  0  0  0  0
  -13.9691  -23.0984   27.0808 H   0  0  0  0  0  0  0  0  0  0  0  0
  -10.9580  -23.0399   26.9549 H   0  0  0  0  0  0  0  0  0  0  0  0
  -12.0836  -21.6772   26.8398 H   0  0  0  0  0  0  0  0  0  0  0  0
  -12.4477  -21.6465   29.1067 H   0  0  0  0  0  0  0  0  0  0  0  0
  -10.6108  -20.5471   29.2831 H   0  0  0  0  0  0  0  0  0  0  0  0
   -9.6015  -21.9513   29.1324 H   0  0  0  0  0  0  0  0  0  0  0  0
   -9.4042  -23.5196   30.9988 H   0  0  0  0  0  0  0  0  0  0  0  0
   -8.5144  -22.0283   31.1260 H   0  0  0  0  0  0  0  0  0  0  0  0
   -8.2633  -23.0436   33.1204 H   0  0  0  0  0  0  0  0  0  0  0  0
   -9.9392  -23.5159   33.3061 H   0  0  0  0  0  0  0  0  0  0  0  0
   -8.6475  -20.7970   33.5329 H   0  0  0  0  0  0  0  0  0  0  0  0
   -9.5523  -21.6989   34.7753 H   0  0  0  0  0  0  0  0  0  0  0  0
  -11.5999  -21.2511   33.6831 H   0  0  0  0  0  0  0  0  0  0  0  0
  -10.8274  -19.7301   33.7389 H   0  0  0  0  0  0  0  0  0  0  0  0
  -10.2152  -19.7571   31.4708 H   0  0  0  0  0  0  0  0  0  0  0  0
  -11.8878  -20.2248   31.5274 H   0  0  0  0  0  0  0  0  0  0  0  0
  -11.8579  -23.7416   30.4411 H   0  0  0  0  0  0  0  0  0  0  0  0
  -11.1079  -24.4105   29.0140 H   0  0  0  0  0  0  0  0  0  0  0  0
  1  2  1  0
  2  3  1  0
  3  4  1  0
  4  5  1  0
  5  6  1  0
  5  7  1  0
  7  8  3  0
  3  9  1  0
  9 10  2  0
  9 11  2  0
  9 12  1  0
 12 13  1  0
 13 14  1  0
 14 15  1  0
 15 16  1  0
 16 17  1  0
 17 18  1  0
 18 19  1  0
 19 20  1  0
 20 21  1  0
 21 22  1  0
 15 23  1  0
 23 12  1  0
 22 17  1  0
  1 24  1  0
  1 25  1  0
  1 26  1  0
  2 27  1  0
  2 28  1  0
  4 29  1  0
  4 30  1  0
  5 31  1  0
  6 32  1  0
  6 33  1  0
  6 34  1  0
 13 35  1  0
 13 36  1  0
 14 37  1  0
 14 38  1  0
 15 39  1  0
 16 40  1  0
 16 41  1  0
 18 42  1  0
 18 43  1  0
 19 44  1  0
 19 45  1  0
 20 46  1  0
 20 47  1  0
 21 48  1  0
 21 49  1  0
 22 50  1  0
 22 51  1  0
 23 52  1  0
 23 53  1  0
M  END
>  <Energy>  (363) 
-109.48570905670316

>  <compound_id>  (363) 
5959

>  <target_id>  (363) 
1

>  <reference_id>  (363) 
3

>  <inspiration_ids>  (363) 
[3, 46]

>  <energy_score>  (363) 
-29.271643473226618

>  <distance_score>  (363) 
2.9064028037175684

>  <path>  (363) 
/opt/xchem-fragalysis-2/maxwin/BulkDock/SCRATCH/511014/C5959-P3/C5959-P3.minimised.mol

>  <scratch_subdir>  (363) 
/opt/xchem-fragalysis-2/maxwin/BulkDock/SCRATCH/511014/C5959-P3

>  <fragmenstein_runtime>  (363) 
7.198542356491089

>  <fragmenstein_outcome>  (363) 
too moved

>  <fragmenstein_mode>  (363) 
expansion

>  <fragmenstein_error>  (363) 


$$$$
C5959-P46
     RDKit          3D

 53 54  0  0  0  0  0  0  0  0999 V2000
  -17.5972  -24.2784   36.1697 C   0  0  0  0  0  0  0  0  0  0  0  0
  -16.7256  -24.9500   35.1216 C   0  0  0  0  0  0  0  0  0  0  0  0
  -16.2054  -24.0203   34.0592 N   0  0  0  0  0  0  0  0  0  0  0  0
  -15.0040  -23.1744   34.4820 C   0  0  0  0  0  0  0  0  0  0  0  0
  -13.8712  -22.7900   33.4944 C   0  0  0  0  0  0  0  0  0  0  0  0
  -13.1805  -21.4401   33.6411 C   0  0  0  0  0  0  0  0  0  0  0  0
  -12.7266  -23.7367   33.5514 C   0  0  0  0  0  0  0  0  0  0  0  0
  -11.7462  -24.3607   33.6077 N   0  0  0  0  0  0  0  0  0  0  0  0
  -17.3772  -23.4557   32.9708 S   0  0  0  0  0  0  0  0  0  0  0  0
  -17.1033  -23.8655   31.6148 O   0  0  0  0  0  0  0  0  0  0  0  0
  -18.6997  -23.6606   33.5128 O   0  0  0  0  0  0  0  0  0  0  0  0
  -17.0441  -21.8418   33.0940 N   0  0  0  0  0  0  0  0  0  0  0  0
  -16.9439  -21.0635   31.8800 C   0  0  0  0  0  0  0  0  0  0  0  0
  -16.6192  -19.6946   32.4338 C   0  0  0  0  0  0  0  0  0  0  0  0
  -17.0688  -19.6526   33.9033 C   0  0  0  0  0  0  0  0  0  0  0  0
  -15.9090  -19.5120   34.9195 C   0  0  0  0  0  0  0  0  0  0  0  0
  -15.1508  -18.2393   34.9220 N   0  0  0  0  0  0  0  0  0  0  0  0
  -15.7502  -17.3492   35.9452 C   0  0  0  0  0  0  0  0  0  0  0  0
  -14.9930  -16.0313   36.1079 C   0  0  0  0  0  0  0  0  0  0  0  0
  -13.5286  -16.2665   36.4477 C   0  0  0  0  0  0  0  0  0  0  0  0
  -12.9187  -17.1771   35.4027 C   0  0  0  0  0  0  0  0  0  0  0  0
  -13.7259  -18.4649   35.2780 C   0  0  0  0  0  0  0  0  0  0  0  0
  -17.7466  -21.0176   34.0835 C   0  0  0  0  0  0  0  0  0  0  0  0
  -17.6830  -24.9319   37.0425 H   0  0  0  0  0  0  0  0  0  0  0  0
  -18.6172  -24.1093   35.8183 H   0  0  0  0  0  0  0  0  0  0  0  0
  -17.2001  -23.3139   36.4911 H   0  0  0  0  0  0  0  0  0  0  0  0
  -17.2798  -25.7645   34.6398 H   0  0  0  0  0  0  0  0  0  0  0  0
  -15.8753  -25.4311   35.6189 H   0  0  0  0  0  0  0  0  0  0  0  0
  -15.4127  -22.3025   34.9818 H   0  0  0  0  0  0  0  0  0  0  0  0
  -14.5227  -23.7779   35.2389 H   0  0  0  0  0  0  0  0  0  0  0  0
  -14.3338  -22.6277   32.5323 H   0  0  0  0  0  0  0  0  0  0  0  0
  -13.8962  -20.6687   33.3962 H   0  0  0  0  0  0  0  0  0  0  0  0
  -12.3635  -21.3310   32.9149 H   0  0  0  0  0  0  0  0  0  0  0  0
  -12.7475  -21.2591   34.6229 H   0  0  0  0  0  0  0  0  0  0  0  0
  -16.1362  -21.4062   31.2304 H   0  0  0  0  0  0  0  0  0  0  0  0
  -17.8937  -21.0553   31.3364 H   0  0  0  0  0  0  0  0  0  0  0  0
  -15.5452  -19.5721   32.3797 H   0  0  0  0  0  0  0  0  0  0  0  0
  -17.1118  -18.9464   31.8148 H   0  0  0  0  0  0  0  0  0  0  0  0
  -17.7946  -18.8523   34.0805 H   0  0  0  0  0  0  0  0  0  0  0  0
  -15.2204  -20.3235   34.7400 H   0  0  0  0  0  0  0  0  0  0  0  0
  -16.3086  -19.7130   35.9230 H   0  0  0  0  0  0  0  0  0  0  0  0
  -16.7889  -17.1240   35.6757 H   0  0  0  0  0  0  0  0  0  0  0  0
  -15.7772  -17.8476   36.9246 H   0  0  0  0  0  0  0  0  0  0  0  0
  -15.4610  -15.4358   36.9002 H   0  0  0  0  0  0  0  0  0  0  0  0
  -15.0645  -15.4421   35.1857 H   0  0  0  0  0  0  0  0  0  0  0  0
  -12.9912  -15.3126   36.4804 H   0  0  0  0  0  0  0  0  0  0  0  0
  -13.4431  -16.7226   37.4414 H   0  0  0  0  0  0  0  0  0  0  0  0
  -11.8809  -17.4083   35.6662 H   0  0  0  0  0  0  0  0  0  0  0  0
  -12.9038  -16.6553   34.4397 H   0  0  0  0  0  0  0  0  0  0  0  0
  -13.6459  -19.0274   36.2150 H   0  0  0  0  0  0  0  0  0  0  0  0
  -13.2382  -19.0429   34.4993 H   0  0  0  0  0  0  0  0  0  0  0  0
  -18.8102  -20.9451   33.8268 H   0  0  0  0  0  0  0  0  0  0  0  0
  -17.6514  -21.4076   35.0990 H   0  0  0  0  0  0  0  0  0  0  0  0
  1  2  1  0
  2  3  1  0
  3  4  1  0
  4  5  1  0
  5  6  1  0
  5  7  1  0
  7  8  3  0
  3  9  1  0
  9 10  2  0
  9 11  2  0
  9 12  1  0
 12 13  1  0
 13 14  1  0
 14 15  1  0
 15 16  1  0
 16 17  1  0
 17 18  1  0
 18 19  1  0
 19 20  1  0
 20 21  1  0
 21 22  1  0
 15 23  1  0
 23 12  1  0
 22 17  1  0
  1 24  1  0
  1 25  1  0
  1 26  1  0
  2 27  1  0
  2 28  1  0
  4 29  1  0
  4 30  1  0
  5 31  1  0
  6 32  1  0
  6 33  1  0
  6 34  1  0
 13 35  1  0
 13 36  1  0
 14 37  1  0
 14 38  1  0
 15 39  1  0
 16 40  1  0
 16 41  1  0
 18 42  1  0
 18 43  1  0
 19 44  1  0
 19 45  1  0
 20 46  1  0
 20 47  1  0
 21 48  1  0
 21 49  1  0
 22 50  1  0
 22 51  1  0
 23 52  1  0
 23 53  1  0
M  END
>  <Energy>  (364) 
-111.46768390202705

>  <compound_id>  (364) 
5959

>  <target_id>  (364) 
1

>  <reference_id>  (364) 
46

>  <inspiration_ids>  (364) 
[3, 46]

>  <energy_score>  (364) 
-56.82192336624179

>  <distance_score>  (364) 
5.299181667308244

>  <path>  (364) 
/opt/xchem-fragalysis-2/maxwin/BulkDock/SCRATCH/511014/C5959-P46/C5959-P46.minimised.mol

>  <scratch_subdir>  (364) 
/opt/xchem-fragalysis-2/maxwin/BulkDock/SCRATCH/511014/C5959-P46

>  <fragmenstein_runtime>  (364) 
9.445198059082031

>  <fragmenstein_outcome>  (364) 
too moved

>  <fragmenstein_mode>  (364) 
expansion

>  <fragmenstein_error>  (364) 


$$$$
C5961-P3
     RDKit          3D

 51 52  0  0  0  0  0  0  0  0999 V2000
  -14.8745  -26.0663   31.9159 O   0  0  0  0  0  0  0  0  0  0  0  0
  -14.8845  -25.4498   30.6075 S   0  0  0  0  0  0  0  0  0  0  0  0
  -15.3656  -24.1031   30.4100 O   0  0  0  0  0  0  0  0  0  0  0  0
  -15.9095  -26.4368   29.5609 C   0  0  0  0  0  0  0  0  0  0  0  0
  -15.7817  -26.3004   28.0282 C   0  0  0  0  0  0  0  0  0  0  0  0
  -15.8633  -24.8943   27.3863 C   0  0  0  0  0  0  0  0  0  0  0  0
  -14.7201  -24.7016   26.5202 O   0  0  0  0  0  0  0  0  0  0  0  0
  -14.4440  -23.3211   26.1875 C   0  0  0  0  0  0  0  0  0  0  0  0
  -12.9465  -23.0223   26.0972 C   0  0  0  0  0  0  0  0  0  0  0  0
  -12.5044  -22.4387   27.2466 F   0  0  0  0  0  0  0  0  0  0  0  0
  -12.7138  -22.1262   25.1078 F   0  0  0  0  0  0  0  0  0  0  0  0
  -13.3255  -25.5588   30.0081 N   0  0  0  0  0  0  0  0  0  0  0  0
  -12.9883  -24.9609   28.7299 C   0  0  0  0  0  0  0  0  0  0  0  0
  -11.4905  -24.8645   28.7015 C   0  0  0  0  0  0  0  0  0  0  0  0
  -11.1054  -24.5659   30.1359 C   0  0  0  0  0  0  0  0  0  0  0  0
  -11.0138  -23.0297   30.3285 C   0  0  0  0  0  0  0  0  0  0  0  0
  -10.5307  -22.6459   31.6415 N   0  0  0  0  0  0  0  0  0  0  0  0
  -10.8597  -21.2738   32.0479 C   0  0  0  0  0  0  0  0  0  0  0  0
  -10.5796  -21.0944   33.5474 C   0  0  0  0  0  0  0  0  0  0  0  0
   -9.4373  -21.9925   34.0108 C   0  0  0  0  0  0  0  0  0  0  0  0
   -8.4314  -22.0798   32.8992 C   0  0  0  0  0  0  0  0  0  0  0  0
   -9.0731  -22.8715   31.7629 C   0  0  0  0  0  0  0  0  0  0  0  0
  -12.1131  -25.4897   30.8631 C   0  0  0  0  0  0  0  0  0  0  0  0
  -16.9416  -26.2095   29.8532 H   0  0  0  0  0  0  0  0  0  0  0  0
  -15.7225  -27.4815   29.8349 H   0  0  0  0  0  0  0  0  0  0  0  0
  -16.6037  -26.8921   27.6016 H   0  0  0  0  0  0  0  0  0  0  0  0
  -14.8792  -26.8265   27.7004 H   0  0  0  0  0  0  0  0  0  0  0  0
  -15.9151  -24.1037   28.1333 H   0  0  0  0  0  0  0  0  0  0  0  0
  -16.7601  -24.8216   26.7613 H   0  0  0  0  0  0  0  0  0  0  0  0
  -14.8911  -22.6763   26.9394 H   0  0  0  0  0  0  0  0  0  0  0  0
  -14.9279  -23.1156   25.2309 H   0  0  0  0  0  0  0  0  0  0  0  0
  -12.3497  -23.9175   25.9242 H   0  0  0  0  0  0  0  0  0  0  0  0
  -13.4429  -23.9791   28.6452 H   0  0  0  0  0  0  0  0  0  0  0  0
  -13.2530  -25.6265   27.9179 H   0  0  0  0  0  0  0  0  0  0  0  0
  -11.1411  -24.1298   27.9759 H   0  0  0  0  0  0  0  0  0  0  0  0
  -11.0860  -25.8420   28.4039 H   0  0  0  0  0  0  0  0  0  0  0  0
  -10.1093  -24.9610   30.3411 H   0  0  0  0  0  0  0  0  0  0  0  0
  -11.9533  -22.5598   30.0662 H   0  0  0  0  0  0  0  0  0  0  0  0
  -10.3328  -22.6225   29.5670 H   0  0  0  0  0  0  0  0  0  0  0  0
  -11.8785  -20.9727   31.8148 H   0  0  0  0  0  0  0  0  0  0  0  0
  -10.2548  -20.5613   31.4802 H   0  0  0  0  0  0  0  0  0  0  0  0
  -10.3244  -20.0462   33.6772 H   0  0  0  0  0  0  0  0  0  0  0  0
  -11.4478  -21.2506   34.1795 H   0  0  0  0  0  0  0  0  0  0  0  0
   -8.9806  -21.6924   34.9454 H   0  0  0  0  0  0  0  0  0  0  0  0
   -9.7905  -23.0071   34.1750 H   0  0  0  0  0  0  0  0  0  0  0  0
   -7.5143  -22.5739   33.2239 H   0  0  0  0  0  0  0  0  0  0  0  0
   -8.1523  -21.0762   32.5737 H   0  0  0  0  0  0  0  0  0  0  0  0
   -8.9022  -23.9390   31.9442 H   0  0  0  0  0  0  0  0  0  0  0  0
   -8.5429  -22.6146   30.8401 H   0  0  0  0  0  0  0  0  0  0  0  0
  -11.7067  -26.5108   30.8502 H   0  0  0  0  0  0  0  0  0  0  0  0
  -12.2929  -25.2977   31.9077 H   0  0  0  0  0  0  0  0  0  0  0  0
  1  2  2  0
  2  3  2  0
  2  4  1  0
  4  5  1  0
  5  6  1  0
  6  7  1  0
  7  8  1  0
  8  9  1  0
  9 10  1  0
  9 11  1  0
  2 12  1  0
 12 13  1  0
 13 14  1  0
 14 15  1  0
 15 16  1  0
 16 17  1  0
 17 18  1  0
 18 19  1  0
 19 20  1  0
 20 21  1  0
 21 22  1  0
 15 23  1  0
 23 12  1  0
 22 17  1  0
  4 24  1  0
  4 25  1  0
  5 26  1  0
  5 27  1  0
  6 28  1  0
  6 29  1  0
  8 30  1  0
  8 31  1  0
  9 32  1  0
 13 33  1  0
 13 34  1  0
 14 35  1  0
 14 36  1  0
 15 37  1  0
 16 38  1  0
 16 39  1  0
 18 40  1  0
 18 41  1  0
 19 42  1  0
 19 43  1  0
 20 44  1  0
 20 45  1  0
 21 46  1  0
 21 47  1  0
 22 48  1  0
 22 49  1  0
 23 50  1  0
 23 51  1  0
M  END
>  <Energy>  (365) 
19.476072552186974

>  <compound_id>  (365) 
5961

>  <target_id>  (365) 
1

>  <reference_id>  (365) 
3

>  <inspiration_ids>  (365) 
[3, 46]

>  <energy_score>  (365) 
-24.662379045630168

>  <distance_score>  (365) 
2.3882218718255883

>  <path>  (365) 
/opt/xchem-fragalysis-2/maxwin/BulkDock/SCRATCH/511014/C5961-P3/C5961-P3.minimised.mol

>  <scratch_subdir>  (365) 
/opt/xchem-fragalysis-2/maxwin/BulkDock/SCRATCH/511014/C5961-P3

>  <fragmenstein_runtime>  (365) 
4.78085732460022

>  <fragmenstein_outcome>  (365) 
too moved

>  <fragmenstein_mode>  (365) 
expansion

>  <fragmenstein_error>  (365) 


$$$$
C5961-P46
     RDKit          3D

 51 52  0  0  0  0  0  0  0  0999 V2000
  -11.4881  -25.9944   27.1007 O   0  0  0  0  0  0  0  0  0  0  0  0
  -12.2689  -26.3189   28.2696 S   0  0  0  0  0  0  0  0  0  0  0  0
  -11.9067  -27.4197   29.1353 O   0  0  0  0  0  0  0  0  0  0  0  0
  -14.0336  -26.5146   27.8956 C   0  0  0  0  0  0  0  0  0  0  0  0
  -14.5196  -26.8475   26.5107 C   0  0  0  0  0  0  0  0  0  0  0  0
  -13.9830  -25.9900   25.3903 C   0  0  0  0  0  0  0  0  0  0  0  0
  -14.2067  -24.6371   25.7578 O   0  0  0  0  0  0  0  0  0  0  0  0
  -13.7061  -23.6996   24.8150 C   0  0  0  0  0  0  0  0  0  0  0  0
  -12.2174  -23.4143   24.9745 C   0  0  0  0  0  0  0  0  0  0  0  0
  -11.9208  -22.6887   26.0742 F   0  0  0  0  0  0  0  0  0  0  0  0
  -11.8276  -22.6882   23.8901 F   0  0  0  0  0  0  0  0  0  0  0  0
  -12.4338  -24.8870   29.2508 N   0  0  0  0  0  0  0  0  0  0  0  0
  -12.4993  -23.6546   28.4690 C   0  0  0  0  0  0  0  0  0  0  0  0
  -11.3982  -22.7905   29.0365 C   0  0  0  0  0  0  0  0  0  0  0  0
  -11.5442  -23.0542   30.5538 C   0  0  0  0  0  0  0  0  0  0  0  0
  -12.6602  -22.0951   31.0254 C   0  0  0  0  0  0  0  0  0  0  0  0
  -13.0094  -21.6024   32.3454 N   0  0  0  0  0  0  0  0  0  0  0  0
  -14.1516  -22.0969   33.0726 C   0  0  0  0  0  0  0  0  0  0  0  0
  -14.7631  -20.9983   33.9423 C   0  0  0  0  0  0  0  0  0  0  0  0
  -13.7995  -19.9667   34.4995 C   0  0  0  0  0  0  0  0  0  0  0  0
  -12.3476  -20.3399   34.3565 C   0  0  0  0  0  0  0  0  0  0  0  0
  -11.9229  -21.2560   33.1962 C   0  0  0  0  0  0  0  0  0  0  0  0
  -11.6028  -24.5933   30.4748 C   0  0  0  0  0  0  0  0  0  0  0  0
  -14.4253  -27.3022   28.5484 H   0  0  0  0  0  0  0  0  0  0  0  0
  -14.4685  -25.5742   28.1840 H   0  0  0  0  0  0  0  0  0  0  0  0
  -15.6119  -26.7230   26.5241 H   0  0  0  0  0  0  0  0  0  0  0  0
  -14.3828  -27.9047   26.3372 H   0  0  0  0  0  0  0  0  0  0  0  0
  -14.5360  -26.2089   24.4698 H   0  0  0  0  0  0  0  0  0  0  0  0
  -12.9265  -26.1848   25.2010 H   0  0  0  0  0  0  0  0  0  0  0  0
  -14.2984  -22.7919   24.8429 H   0  0  0  0  0  0  0  0  0  0  0  0
  -13.9905  -24.0342   23.8164 H   0  0  0  0  0  0  0  0  0  0  0  0
  -11.6063  -24.3166   25.0243 H   0  0  0  0  0  0  0  0  0  0  0  0
  -13.4856  -23.2129   28.5652 H   0  0  0  0  0  0  0  0  0  0  0  0
  -12.3569  -23.8895   27.4369 H   0  0  0  0  0  0  0  0  0  0  0  0
  -11.5012  -21.7479   28.7339 H   0  0  0  0  0  0  0  0  0  0  0  0
  -10.4392  -23.1496   28.6462 H   0  0  0  0  0  0  0  0  0  0  0  0
  -10.6928  -22.7845   31.1707 H   0  0  0  0  0  0  0  0  0  0  0  0
  -12.2412  -21.1881   30.5864 H   0  0  0  0  0  0  0  0  0  0  0  0
  -13.5751  -22.1902   30.4488 H   0  0  0  0  0  0  0  0  0  0  0  0
  -13.8936  -22.9709   33.6815 H   0  0  0  0  0  0  0  0  0  0  0  0
  -14.9684  -22.3624   32.3980 H   0  0  0  0  0  0  0  0  0  0  0  0
  -15.5033  -20.4533   33.3389 H   0  0  0  0  0  0  0  0  0  0  0  0
  -15.3503  -21.4646   34.7396 H   0  0  0  0  0  0  0  0  0  0  0  0
  -14.0221  -19.7218   35.5394 H   0  0  0  0  0  0  0  0  0  0  0  0
  -13.9973  -18.9970   34.0394 H   0  0  0  0  0  0  0  0  0  0  0  0
  -12.1167  -20.8513   35.2865 H   0  0  0  0  0  0  0  0  0  0  0  0
  -11.7687  -19.4104   34.3284 H   0  0  0  0  0  0  0  0  0  0  0  0
  -11.4871  -22.1864   33.5717 H   0  0  0  0  0  0  0  0  0  0  0  0
  -11.1530  -20.7413   32.6112 H   0  0  0  0  0  0  0  0  0  0  0  0
  -10.5929  -24.9853   30.2921 H   0  0  0  0  0  0  0  0  0  0  0  0
  -11.9465  -25.0383   31.4031 H   0  0  0  0  0  0  0  0  0  0  0  0
  1  2  2  0
  2  3  2  0
  2  4  1  0
  4  5  1  0
  5  6  1  0
  6  7  1  0
  7  8  1  0
  8  9  1  0
  9 10  1  0
  9 11  1  0
  2 12  1  0
 12 13  1  0
 13 14  1  0
 14 15  1  0
 15 16  1  0
 16 17  1  0
 17 18  1  0
 18 19  1  0
 19 20  1  0
 20 21  1  0
 21 22  1  0
 15 23  1  0
 23 12  1  0
 22 17  1  0
  4 24  1  0
  4 25  1  0
  5 26  1  0
  5 27  1  0
  6 28  1  0
  6 29  1  0
  8 30  1  0
  8 31  1  0
  9 32  1  0
 13 33  1  0
 13 34  1  0
 14 35  1  0
 14 36  1  0
 15 37  1  0
 16 38  1  0
 16 39  1  0
 18 40  1  0
 18 41  1  0
 19 42  1  0
 19 43  1  0
 20 44  1  0
 20 45  1  0
 21 46  1  0
 21 47  1  0
 22 48  1  0
 22 49  1  0
 23 50  1  0
 23 51  1  0
M  END
>  <Energy>  (366) 
41.377611489524952

>  <compound_id>  (366) 
5961

>  <target_id>  (366) 
1

>  <reference_id>  (366) 
46

>  <inspiration_ids>  (366) 
[3, 46]

>  <energy_score>  (366) 
-2.760840108293152

>  <distance_score>  (366) 
2.310728100378912

>  <path>  (366) 
/opt/xchem-fragalysis-2/maxwin/BulkDock/SCRATCH/511014/C5961-P46/C5961-P46.minimised.mol

>  <scratch_subdir>  (366) 
/opt/xchem-fragalysis-2/maxwin/BulkDock/SCRATCH/511014/C5961-P46

>  <fragmenstein_runtime>  (366) 
4.916722059249878

>  <fragmenstein_outcome>  (366) 
too moved

>  <fragmenstein_mode>  (366) 
expansion

>  <fragmenstein_error>  (366) 


$$$$
C5962-P3
     RDKit          3D

 53 54  0  0  0  0  0  0  0  0999 V2000
  -11.9911  -26.0475   31.4629 C   0  0  0  0  0  0  0  0  0  0  0  0
  -12.4930  -27.1640   30.5462 C   0  0  0  0  0  0  0  0  0  0  0  0
  -13.1583  -26.6183   29.2658 C   0  0  0  0  0  0  0  0  0  0  0  0
  -14.0070  -27.6840   28.5531 C   0  0  0  0  0  0  0  0  0  0  0  0
  -15.3532  -27.9198   29.2320 C   0  0  0  0  0  0  0  0  0  0  0  0
  -16.0685  -28.8994   28.4819 O   0  0  0  0  0  0  0  0  0  0  0  0
  -17.3525  -29.1541   29.0347 C   0  0  0  0  0  0  0  0  0  0  0  0
  -12.0666  -26.1660   28.2880 C   0  0  0  0  0  0  0  0  0  0  0  0
  -11.1967  -26.8795   27.9417 O   0  0  0  0  0  0  0  0  0  0  0  0
  -12.3425  -24.7113   27.9414 N   0  0  0  0  0  0  0  0  0  0  0  0
  -11.6438  -23.7783   26.9713 C   0  0  0  0  0  0  0  0  0  0  0  0
  -11.1436  -22.3987   27.3370 C   0  0  0  0  0  0  0  0  0  0  0  0
  -11.7256  -22.3217   28.6737 C   0  0  0  0  0  0  0  0  0  0  0  0
  -11.0632  -21.3688   29.6713 C   0  0  0  0  0  0  0  0  0  0  0  0
  -10.9342  -21.7851   31.0798 N   0  0  0  0  0  0  0  0  0  0  0  0
  -11.0664  -20.6230   31.9848 C   0  0  0  0  0  0  0  0  0  0  0  0
  -10.7749  -20.8869   33.4666 C   0  0  0  0  0  0  0  0  0  0  0  0
   -9.7004  -21.9288   33.7145 C   0  0  0  0  0  0  0  0  0  0  0  0
   -8.8237  -22.0577   32.5062 C   0  0  0  0  0  0  0  0  0  0  0  0
   -9.6752  -22.5195   31.3209 C   0  0  0  0  0  0  0  0  0  0  0  0
  -11.6766  -23.7877   28.9136 C   0  0  0  0  0  0  0  0  0  0  0  0
  -11.6032  -26.4765   32.3920 H   0  0  0  0  0  0  0  0  0  0  0  0
  -12.8538  -25.4576   31.7437 H   0  0  0  0  0  0  0  0  0  0  0  0
  -11.2078  -25.4459   31.0104 H   0  0  0  0  0  0  0  0  0  0  0  0
  -11.6608  -27.8342   30.3021 H   0  0  0  0  0  0  0  0  0  0  0  0
  -13.2124  -27.7596   31.1190 H   0  0  0  0  0  0  0  0  0  0  0  0
  -13.8073  -25.7716   29.5213 H   0  0  0  0  0  0  0  0  0  0  0  0
  -14.1939  -27.3841   27.5130 H   0  0  0  0  0  0  0  0  0  0  0  0
  -13.4577  -28.6324   28.4825 H   0  0  0  0  0  0  0  0  0  0  0  0
  -15.2176  -28.2828   30.2558 H   0  0  0  0  0  0  0  0  0  0  0  0
  -15.9302  -26.9883   29.2584 H   0  0  0  0  0  0  0  0  0  0  0  0
  -17.8480  -29.9112   28.4210 H   0  0  0  0  0  0  0  0  0  0  0  0
  -17.9604  -28.2442   29.0261 H   0  0  0  0  0  0  0  0  0  0  0  0
  -17.2614  -29.5371   30.0555 H   0  0  0  0  0  0  0  0  0  0  0  0
  -12.3942  -23.6541   26.1761 H   0  0  0  0  0  0  0  0  0  0  0  0
  -10.8568  -24.3587   26.4776 H   0  0  0  0  0  0  0  0  0  0  0  0
  -10.0585  -22.3564   27.3360 H   0  0  0  0  0  0  0  0  0  0  0  0
  -11.5195  -21.6270   26.6583 H   0  0  0  0  0  0  0  0  0  0  0  0
  -12.7203  -21.9924   28.4542 H   0  0  0  0  0  0  0  0  0  0  0  0
  -11.6448  -20.4387   29.6216 H   0  0  0  0  0  0  0  0  0  0  0  0
  -10.0969  -21.0803   29.2545 H   0  0  0  0  0  0  0  0  0  0  0  0
  -12.0611  -20.1777   31.8903 H   0  0  0  0  0  0  0  0  0  0  0  0
  -10.3795  -19.8329   31.6545 H   0  0  0  0  0  0  0  0  0  0  0  0
  -11.6576  -21.1017   34.0541 H   0  0  0  0  0  0  0  0  0  0  0  0
  -10.4583  -19.9310   33.8654 H   0  0  0  0  0  0  0  0  0  0  0  0
  -10.1384  -22.9097   33.8535 H   0  0  0  0  0  0  0  0  0  0  0  0
   -9.1154  -21.7308   34.6114 H   0  0  0  0  0  0  0  0  0  0  0  0
   -8.0318  -22.7917   32.6853 H   0  0  0  0  0  0  0  0  0  0  0  0
   -8.3326  -21.1062   32.3126 H   0  0  0  0  0  0  0  0  0  0  0  0
   -9.9454  -23.5685   31.4859 H   0  0  0  0  0  0  0  0  0  0  0  0
   -9.0294  -22.5243   30.4394 H   0  0  0  0  0  0  0  0  0  0  0  0
  -10.6921  -24.1555   29.1944 H   0  0  0  0  0  0  0  0  0  0  0  0
  -12.2585  -23.9579   29.8180 H   0  0  0  0  0  0  0  0  0  0  0  0
  1  2  1  0
  2  3  1  0
  3  4  1  0
  4  5  1  0
  5  6  1  0
  6  7  1  0
  3  8  1  0
  8  9  2  0
  8 10  1  0
 10 11  1  0
 11 12  1  0
 12 13  1  0
 13 14  1  0
 14 15  1  0
 15 16  1  0
 16 17  1  0
 17 18  1  0
 18 19  1  0
 19 20  1  0
 13 21  1  0
 21 10  1  0
 20 15  1  0
  1 22  1  0
  1 23  1  0
  1 24  1  0
  2 25  1  0
  2 26  1  0
  3 27  1  0
  4 28  1  0
  4 29  1  0
  5 30  1  0
  5 31  1  0
  7 32  1  0
  7 33  1  0
  7 34  1  0
 11 35  1  0
 11 36  1  0
 12 37  1  0
 12 38  1  0
 13 39  1  0
 14 40  1  0
 14 41  1  0
 16 42  1  0
 16 43  1  0
 17 44  1  0
 17 45  1  0
 18 46  1  0
 18 47  1  0
 19 48  1  0
 19 49  1  0
 20 50  1  0
 20 51  1  0
 21 52  1  0
 21 53  1  0
M  END
>  <Energy>  (367) 
106.59850382956125

>  <compound_id>  (367) 
5962

>  <target_id>  (367) 
1

>  <reference_id>  (367) 
3

>  <inspiration_ids>  (367) 
[3, 46]

>  <energy_score>  (367) 
16.861859404211586

>  <distance_score>  (367) 
2.909797778604724

>  <path>  (367) 
/opt/xchem-fragalysis-2/maxwin/BulkDock/SCRATCH/511014/C5962-P3/C5962-P3.minimised.mol

>  <scratch_subdir>  (367) 
/opt/xchem-fragalysis-2/maxwin/BulkDock/SCRATCH/511014/C5962-P3

>  <fragmenstein_runtime>  (367) 
5.006505966186523

>  <fragmenstein_outcome>  (367) 
too moved

>  <fragmenstein_mode>  (367) 
expansion

>  <fragmenstein_error>  (367) 


$$$$
C5962-P46
     RDKit          3D

 53 54  0  0  0  0  0  0  0  0999 V2000
  -15.6402  -27.3074   28.0066 C   0  0  0  0  0  0  0  0  0  0  0  0
  -14.6466  -27.5049   26.8767 C   0  0  0  0  0  0  0  0  0  0  0  0
  -14.5806  -26.3379   25.8747 C   0  0  0  0  0  0  0  0  0  0  0  0
  -15.2355  -26.7018   24.5239 C   0  0  0  0  0  0  0  0  0  0  0  0
  -16.7443  -26.9000   24.6260 C   0  0  0  0  0  0  0  0  0  0  0  0
  -17.2604  -27.1380   23.3154 O   0  0  0  0  0  0  0  0  0  0  0  0
  -18.6688  -27.3218   23.3329 C   0  0  0  0  0  0  0  0  0  0  0  0
  -13.1441  -25.8046   25.6132 C   0  0  0  0  0  0  0  0  0  0  0  0
  -12.5033  -26.2451   24.6931 O   0  0  0  0  0  0  0  0  0  0  0  0
  -12.8501  -24.7457   26.5243 N   0  0  0  0  0  0  0  0  0  0  0  0
  -11.7194  -23.7828   26.5619 C   0  0  0  0  0  0  0  0  0  0  0  0
  -11.5296  -23.1007   27.9026 C   0  0  0  0  0  0  0  0  0  0  0  0
  -12.0308  -24.1861   28.7822 C   0  0  0  0  0  0  0  0  0  0  0  0
  -11.1590  -24.5413   29.9884 C   0  0  0  0  0  0  0  0  0  0  0  0
  -11.5025  -23.8328   31.2101 N   0  0  0  0  0  0  0  0  0  0  0  0
  -10.8554  -24.3460   32.4111 C   0  0  0  0  0  0  0  0  0  0  0  0
  -11.8133  -24.1794   33.5767 C   0  0  0  0  0  0  0  0  0  0  0  0
  -12.4781  -22.8161   33.6923 C   0  0  0  0  0  0  0  0  0  0  0  0
  -12.5282  -21.9676   32.4291 C   0  0  0  0  0  0  0  0  0  0  0  0
  -11.6268  -22.3917   31.2690 C   0  0  0  0  0  0  0  0  0  0  0  0
  -12.1391  -25.2800   27.7387 C   0  0  0  0  0  0  0  0  0  0  0  0
  -15.3566  -26.4756   28.6424 H   0  0  0  0  0  0  0  0  0  0  0  0
  -15.6760  -28.2038   28.6346 H   0  0  0  0  0  0  0  0  0  0  0  0
  -16.6496  -27.1291   27.6249 H   0  0  0  0  0  0  0  0  0  0  0  0
  -13.6773  -27.6840   27.3414 H   0  0  0  0  0  0  0  0  0  0  0  0
  -14.9162  -28.4340   26.3610 H   0  0  0  0  0  0  0  0  0  0  0  0
  -15.1437  -25.4853   26.2511 H   0  0  0  0  0  0  0  0  0  0  0  0
  -15.0394  -25.9076   23.7905 H   0  0  0  0  0  0  0  0  0  0  0  0
  -14.7755  -27.6024   24.0970 H   0  0  0  0  0  0  0  0  0  0  0  0
  -16.9804  -27.7595   25.2618 H   0  0  0  0  0  0  0  0  0  0  0  0
  -17.2167  -26.0036   25.0440 H   0  0  0  0  0  0  0  0  0  0  0  0
  -19.0060  -27.4988   22.3081 H   0  0  0  0  0  0  0  0  0  0  0  0
  -19.1676  -26.4258   23.7148 H   0  0  0  0  0  0  0  0  0  0  0  0
  -18.9346  -28.1904   23.9430 H   0  0  0  0  0  0  0  0  0  0  0  0
  -11.9833  -23.0383   25.8056 H   0  0  0  0  0  0  0  0  0  0  0  0
  -10.8031  -24.2333   26.1649 H   0  0  0  0  0  0  0  0  0  0  0  0
  -10.4883  -22.8393   28.0907 H   0  0  0  0  0  0  0  0  0  0  0  0
  -12.1318  -22.1966   28.0007 H   0  0  0  0  0  0  0  0  0  0  0  0
  -13.0445  -23.9273   29.0741 H   0  0  0  0  0  0  0  0  0  0  0  0
  -10.0984  -24.4591   29.7382 H   0  0  0  0  0  0  0  0  0  0  0  0
  -11.3116  -25.6115   30.1810 H   0  0  0  0  0  0  0  0  0  0  0  0
   -9.9046  -23.8362   32.6043 H   0  0  0  0  0  0  0  0  0  0  0  0
  -10.6238  -25.4142   32.3178 H   0  0  0  0  0  0  0  0  0  0  0  0
  -11.3371  -24.4767   34.5140 H   0  0  0  0  0  0  0  0  0  0  0  0
  -12.6013  -24.9112   33.4646 H   0  0  0  0  0  0  0  0  0  0  0  0
  -12.0000  -22.2307   34.4725 H   0  0  0  0  0  0  0  0  0  0  0  0
  -13.5033  -22.9587   34.0574 H   0  0  0  0  0  0  0  0  0  0  0  0
  -12.2691  -20.9434   32.7125 H   0  0  0  0  0  0  0  0  0  0  0  0
  -13.5662  -21.9259   32.0800 H   0  0  0  0  0  0  0  0  0  0  0  0
  -10.6607  -21.9032   31.4055 H   0  0  0  0  0  0  0  0  0  0  0  0
  -12.0545  -21.9779   30.3517 H   0  0  0  0  0  0  0  0  0  0  0  0
  -12.7496  -26.0844   28.1417 H   0  0  0  0  0  0  0  0  0  0  0  0
  -11.1892  -25.7862   27.4886 H   0  0  0  0  0  0  0  0  0  0  0  0
  1  2  1  0
  2  3  1  0
  3  4  1  0
  4  5  1  0
  5  6  1  0
  6  7  1  0
  3  8  1  0
  8  9  2  0
  8 10  1  0
 10 11  1  0
 11 12  1  0
 12 13  1  0
 13 14  1  0
 14 15  1  0
 15 16  1  0
 16 17  1  0
 17 18  1  0
 18 19  1  0
 19 20  1  0
 13 21  1  0
 21 10  1  0
 20 15  1  0
  1 22  1  0
  1 23  1  0
  1 24  1  0
  2 25  1  0
  2 26  1  0
  3 27  1  0
  4 28  1  0
  4 29  1  0
  5 30  1  0
  5 31  1  0
  7 32  1  0
  7 33  1  0
  7 34  1  0
 11 35  1  0
 11 36  1  0
 12 37  1  0
 12 38  1  0
 13 39  1  0
 14 40  1  0
 14 41  1  0
 16 42  1  0
 16 43  1  0
 17 44  1  0
 17 45  1  0
 18 46  1  0
 18 47  1  0
 19 48  1  0
 19 49  1  0
 20 50  1  0
 20 51  1  0
 21 52  1  0
 21 53  1  0
M  END
>  <Energy>  (368) 
85.236030556033455

>  <compound_id>  (368) 
5962

>  <target_id>  (368) 
1

>  <reference_id>  (368) 
46

>  <inspiration_ids>  (368) 
[3, 46]

>  <energy_score>  (368) 
24.73105960622462

>  <distance_score>  (368) 
4.348792815774878

>  <path>  (368) 
/opt/xchem-fragalysis-2/maxwin/BulkDock/SCRATCH/511014/C5962-P46/C5962-P46.minimised.mol

>  <scratch_subdir>  (368) 
/opt/xchem-fragalysis-2/maxwin/BulkDock/SCRATCH/511014/C5962-P46

>  <fragmenstein_runtime>  (368) 
8.174686431884766

>  <fragmenstein_outcome>  (368) 
too moved

>  <fragmenstein_mode>  (368) 
expansion

>  <fragmenstein_error>  (368) 


$$$$
C5964-P3
     RDKit          3D

 58 59  0  0  0  0  0  0  0  0999 V2000
  -12.0711  -19.2196   32.8254 C   0  0  0  0  0  0  0  0  0  0  0  0
  -10.7957  -19.7761   32.2352 C   0  0  0  0  0  0  0  0  0  0  0  0
  -10.0009  -20.6299   33.2504 C   0  0  0  0  0  0  0  0  0  0  0  0
   -9.9031  -22.0294   32.9293 N   0  0  0  0  0  0  0  0  0  0  0  0
   -9.0093  -22.7622   31.9102 C   0  0  0  0  0  0  0  0  0  0  0  0
   -8.1600  -22.3595   31.2270 O   0  0  0  0  0  0  0  0  0  0  0  0
   -9.4802  -24.1820   31.8238 C   0  0  0  0  0  0  0  0  0  0  0  0
  -10.6982  -24.2371   30.9011 C   0  0  0  0  0  0  0  0  0  0  0  0
  -11.5355  -25.4845   31.0815 C   0  0  0  0  0  0  0  0  0  0  0  0
  -12.9804  -25.2581   30.9848 N   0  0  0  0  0  0  0  0  0  0  0  0
  -13.4472  -25.1148   29.5939 C   0  0  0  0  0  0  0  0  0  0  0  0
  -14.9597  -25.3404   29.4222 C   0  0  0  0  0  0  0  0  0  0  0  0
  -15.7664  -25.1306   30.6971 C   0  0  0  0  0  0  0  0  0  0  0  0
  -15.1934  -25.9415   31.8530 C   0  0  0  0  0  0  0  0  0  0  0  0
  -13.7261  -26.3289   31.6478 C   0  0  0  0  0  0  0  0  0  0  0  0
  -10.8727  -20.5314   31.0204 N   0  0  0  0  0  0  0  0  0  0  0  0
  -11.2094  -20.0876   29.5882 C   0  0  0  0  0  0  0  0  0  0  0  0
  -11.5527  -19.0551   29.1811 O   0  0  0  0  0  0  0  0  0  0  0  0
  -10.8877  -21.3234   28.7002 C   0  0  0  0  0  0  0  0  0  0  0  0
  -11.9670  -21.8612   27.8697 N   0  0  0  0  0  0  0  0  0  0  0  0
  -11.4637  -22.9559   27.0302 C   0  0  0  0  0  0  0  0  0  0  0  0
  -12.2867  -22.9091   25.7576 C   0  0  0  0  0  0  0  0  0  0  0  0
  -13.1133  -21.6531   25.8420 C   0  0  0  0  0  0  0  0  0  0  0  0
  -12.4132  -20.8544   26.9115 C   0  0  0  0  0  0  0  0  0  0  0  0
  -12.4452  -19.8368   33.6438 H   0  0  0  0  0  0  0  0  0  0  0  0
  -11.8809  -18.2359   33.2702 H   0  0  0  0  0  0  0  0  0  0  0  0
  -12.8475  -19.0985   32.0760 H   0  0  0  0  0  0  0  0  0  0  0  0
  -10.2031  -18.8975   31.9590 H   0  0  0  0  0  0  0  0  0  0  0  0
   -8.9629  -20.2921   33.2650 H   0  0  0  0  0  0  0  0  0  0  0  0
  -10.4575  -20.5851   34.2386 H   0  0  0  0  0  0  0  0  0  0  0  0
  -10.5921  -22.6644   33.2887 H   0  0  0  0  0  0  0  0  0  0  0  0
   -8.6470  -24.7379   31.4060 H   0  0  0  0  0  0  0  0  0  0  0  0
   -9.6814  -24.5705   32.8253 H   0  0  0  0  0  0  0  0  0  0  0  0
  -10.3926  -24.1660   29.8604 H   0  0  0  0  0  0  0  0  0  0  0  0
  -11.3059  -23.3549   31.0697 H   0  0  0  0  0  0  0  0  0  0  0  0
  -11.2233  -26.2625   30.3753 H   0  0  0  0  0  0  0  0  0  0  0  0
  -11.3323  -25.8797   32.0829 H   0  0  0  0  0  0  0  0  0  0  0  0
  -12.9301  -25.8188   28.9284 H   0  0  0  0  0  0  0  0  0  0  0  0
  -13.1918  -24.1150   29.2366 H   0  0  0  0  0  0  0  0  0  0  0  0
  -15.1227  -26.3710   29.0796 H   0  0  0  0  0  0  0  0  0  0  0  0
  -15.3405  -24.6872   28.6284 H   0  0  0  0  0  0  0  0  0  0  0  0
  -16.8133  -25.4096   30.5304 H   0  0  0  0  0  0  0  0  0  0  0  0
  -15.7801  -24.0669   30.9541 H   0  0  0  0  0  0  0  0  0  0  0  0
  -15.7800  -26.8589   31.9848 H   0  0  0  0  0  0  0  0  0  0  0  0
  -15.3132  -25.3661   32.7783 H   0  0  0  0  0  0  0  0  0  0  0  0
  -13.3083  -26.5686   32.6328 H   0  0  0  0  0  0  0  0  0  0  0  0
  -13.6619  -27.2576   31.0638 H   0  0  0  0  0  0  0  0  0  0  0  0
  -10.6889  -21.5151   31.0309 H   0  0  0  0  0  0  0  0  0  0  0  0
  -10.0411  -21.0077   28.0930 H   0  0  0  0  0  0  0  0  0  0  0  0
  -10.4838  -22.1353   29.2975 H   0  0  0  0  0  0  0  0  0  0  0  0
  -10.4141  -22.8132   26.7544 H   0  0  0  0  0  0  0  0  0  0  0  0
  -11.5515  -23.9223   27.5336 H   0  0  0  0  0  0  0  0  0  0  0  0
  -12.9341  -23.7855   25.6623 H   0  0  0  0  0  0  0  0  0  0  0  0
  -11.6166  -22.8337   24.8964 H   0  0  0  0  0  0  0  0  0  0  0  0
  -14.1301  -21.9289   26.1312 H   0  0  0  0  0  0  0  0  0  0  0  0
  -13.1667  -21.1227   24.8866 H   0  0  0  0  0  0  0  0  0  0  0  0
  -11.5985  -20.2850   26.4778 H   0  0  0  0  0  0  0  0  0  0  0  0
  -13.0651  -20.1420   27.3859 H   0  0  0  0  0  0  0  0  0  0  0  0
  1  2  1  0
  2  3  1  0
  3  4  1  0
  4  5  1  0
  5  6  2  0
  5  7  1  0
  7  8  1  0
  8  9  1  0
  9 10  1  0
 10 11  1  0
 11 12  1  0
 12 13  1  0
 13 14  1  0
 14 15  1  0
  2 16  1  0
 16 17  1  0
 17 18  2  0
 17 19  1  0
 19 20  1  0
 20 21  1  0
 21 22  1  0
 22 23  1  0
 23 24  1  0
 15 10  1  0
 24 20  1  0
  1 25  1  0
  1 26  1  0
  1 27  1  0
  2 28  1  0
  3 29  1  0
  3 30  1  0
  4 31  1  0
  7 32  1  0
  7 33  1  0
  8 34  1  0
  8 35  1  0
  9 36  1  0
  9 37  1  0
 11 38  1  0
 11 39  1  0
 12 40  1  0
 12 41  1  0
 13 42  1  0
 13 43  1  0
 14 44  1  0
 14 45  1  0
 15 46  1  0
 15 47  1  0
 16 48  1  0
 19 49  1  0
 19 50  1  0
 21 51  1  0
 21 52  1  0
 22 53  1  0
 22 54  1  0
 23 55  1  0
 23 56  1  0
 24 57  1  0
 24 58  1  0
M  END
>  <Energy>  (369) 
77.951405464902336

>  <compound_id>  (369) 
5964

>  <target_id>  (369) 
1

>  <reference_id>  (369) 
3

>  <inspiration_ids>  (369) 
[3, 46]

>  <energy_score>  (369) 
15.697704108381316

>  <distance_score>  (369) 
2.359559323345543

>  <path>  (369) 
/opt/xchem-fragalysis-2/maxwin/BulkDock/SCRATCH/511014/C5964-P3/C5964-P3.minimised.mol

>  <scratch_subdir>  (369) 
/opt/xchem-fragalysis-2/maxwin/BulkDock/SCRATCH/511014/C5964-P3

>  <fragmenstein_runtime>  (369) 
8.465672969818115

>  <fragmenstein_outcome>  (369) 
too moved

>  <fragmenstein_mode>  (369) 
expansion

>  <fragmenstein_error>  (369) 


$$$$
C5964-P46
     RDKit          3D

 58 59  0  0  0  0  0  0  0  0999 V2000
  -10.7263  -21.2341   29.9294 C   0  0  0  0  0  0  0  0  0  0  0  0
  -12.1415  -21.3340   29.7092 C   0  0  0  0  0  0  0  0  0  0  0  0
  -12.3801  -21.5174   31.4749 C   0  0  0  0  0  0  0  0  0  0  0  0
  -12.1199  -22.8125   31.8873 N   0  0  0  0  0  0  0  0  0  0  0  0
  -10.9632  -23.3911   32.4459 C   0  0  0  0  0  0  0  0  0  0  0  0
   -9.9369  -22.9030   32.7878 O   0  0  0  0  0  0  0  0  0  0  0  0
  -11.2070  -24.8396   32.4421 C   0  0  0  0  0  0  0  0  0  0  0  0
  -11.1935  -25.0286   30.8719 C   0  0  0  0  0  0  0  0  0  0  0  0
  -12.2654  -24.1470   29.8758 C   0  0  0  0  0  0  0  0  0  0  0  0
  -13.9004  -23.4266   29.4422 N   0  0  0  0  0  0  0  0  0  0  0  0
  -14.4865  -24.7517   28.8897 C   0  0  0  0  0  0  0  0  0  0  0  0
  -15.9955  -25.5379   29.7081 C   0  0  0  0  0  0  0  0  0  0  0  0
  -16.7674  -24.8808   30.9828 C   0  0  0  0  0  0  0  0  0  0  0  0
  -16.3612  -23.3894   31.5226 C   0  0  0  0  0  0  0  0  0  0  0  0
  -15.1033  -22.5529   30.6039 C   0  0  0  0  0  0  0  0  0  0  0  0
  -12.1080  -22.2370   28.4259 N   0  0  0  0  0  0  0  0  0  0  0  0
  -11.0428  -23.0583   27.8603 C   0  0  0  0  0  0  0  0  0  0  0  0
   -9.8923  -23.1883   28.1924 O   0  0  0  0  0  0  0  0  0  0  0  0
  -11.4378  -24.0254   26.6970 C   0  0  0  0  0  0  0  0  0  0  0  0
  -12.7247  -23.8288   26.0591 N   0  0  0  0  0  0  0  0  0  0  0  0
  -13.3231  -25.0972   25.6171 C   0  0  0  0  0  0  0  0  0  0  0  0
  -14.4495  -24.6191   24.7134 C   0  0  0  0  0  0  0  0  0  0  0  0
  -13.9590  -23.2764   24.1660 C   0  0  0  0  0  0  0  0  0  0  0  0
  -12.5852  -23.0799   24.8003 C   0  0  0  0  0  0  0  0  0  0  0  0
  -10.1878  -21.0677   29.0254 H   0  0  0  0  0  0  0  0  0  0  0  0
  -10.6174  -22.2340   30.2678 H   0  0  0  0  0  0  0  0  0  0  0  0
  -10.3993  -20.6418   30.7599 H   0  0  0  0  0  0  0  0  0  0  0  0
  -12.5964  -20.4376   29.3265 H   0  0  0  0  0  0  0  0  0  0  0  0
  -11.6834  -20.8851   32.0408 H   0  0  0  0  0  0  0  0  0  0  0  0
  -13.3116  -21.2139   31.9207 H   0  0  0  0  0  0  0  0  0  0  0  0
  -12.8411  -23.5285   31.8001 H   0  0  0  0  0  0  0  0  0  0  0  0
  -12.1313  -25.1090   32.9400 H   0  0  0  0  0  0  0  0  0  0  0  0
  -10.3727  -25.3756   32.9001 H   0  0  0  0  0  0  0  0  0  0  0  0
  -10.1911  -24.7702   30.5025 H   0  0  0  0  0  0  0  0  0  0  0  0
  -11.2958  -26.1039   30.6566 H   0  0  0  0  0  0  0  0  0  0  0  0
  -12.7935  -24.8985   30.3075 H   0  0  0  0  0  0  0  0  0  0  0  0
  -12.0454  -24.6298   28.9318 H   0  0  0  0  0  0  0  0  0  0  0  0
  -14.4058  -24.4188   27.8444 H   0  0  0  0  0  0  0  0  0  0  0  0
  -13.8547  -25.5555   28.4543 H   0  0  0  0  0  0  0  0  0  0  0  0
  -16.8095  -25.8002   29.0054 H   0  0  0  0  0  0  0  0  0  0  0  0
  -15.7922  -26.5956   29.9182 H   0  0  0  0  0  0  0  0  0  0  0  0
  -16.7716  -25.5810   31.8251 H   0  0  0  0  0  0  0  0  0  0  0  0
  -17.8461  -24.8838   30.7491 H   0  0  0  0  0  0  0  0  0  0  0  0
  -16.0624  -23.4423   32.5823 H   0  0  0  0  0  0  0  0  0  0  0  0
  -17.2436  -22.7312   31.5797 H   0  0  0  0  0  0  0  0  0  0  0  0
  -14.5221  -22.1719   31.4112 H   0  0  0  0  0  0  0  0  0  0  0  0
  -15.5397  -21.6098   30.2848 H   0  0  0  0  0  0  0  0  0  0  0  0
  -12.9763  -22.4414   27.9400 H   0  0  0  0  0  0  0  0  0  0  0  0
  -10.6398  -24.0105   25.9577 H   0  0  0  0  0  0  0  0  0  0  0  0
  -11.3861  -25.0369   27.1214 H   0  0  0  0  0  0  0  0  0  0  0  0
  -12.6011  -25.7184   25.0741 H   0  0  0  0  0  0  0  0  0  0  0  0
  -13.7073  -25.7330   26.4127 H   0  0  0  0  0  0  0  0  0  0  0  0
  -15.3783  -24.4796   25.2757 H   0  0  0  0  0  0  0  0  0  0  0  0
  -14.6643  -25.3451   23.9256 H   0  0  0  0  0  0  0  0  0  0  0  0
  -14.6760  -22.4918   24.4213 H   0  0  0  0  0  0  0  0  0  0  0  0
  -13.8889  -23.2610   23.0812 H   0  0  0  0  0  0  0  0  0  0  0  0
  -11.7757  -23.4891   24.1929 H   0  0  0  0  0  0  0  0  0  0  0  0
  -12.2977  -22.0336   24.8539 H   0  0  0  0  0  0  0  0  0  0  0  0
  1  2  1  0
  2  3  1  0
  3  4  1  0
  4  5  1  0
  5  6  2  0
  5  7  1  0
  7  8  1  0
  8  9  1  0
  9 10  1  0
 10 11  1  0
 11 12  1  0
 12 13  1  0
 13 14  1  0
 14 15  1  0
  2 16  1  0
 16 17  1  0
 17 18  2  0
 17 19  1  0
 19 20  1  0
 20 21  1  0
 21 22  1  0
 22 23  1  0
 23 24  1  0
 15 10  1  0
 24 20  1  0
  1 25  1  0
  1 26  1  0
  1 27  1  0
  2 28  1  0
  3 29  1  0
  3 30  1  0
  4 31  1  0
  7 32  1  0
  7 33  1  0
  8 34  1  0
  8 35  1  0
  9 36  1  0
  9 37  1  0
 11 38  1  0
 11 39  1  0
 12 40  1  0
 12 41  1  0
 13 42  1  0
 13 43  1  0
 14 44  1  0
 14 45  1  0
 15 46  1  0
 15 47  1  0
 16 48  1  0
 19 49  1  0
 19 50  1  0
 21 51  1  0
 21 52  1  0
 22 53  1  0
 22 54  1  0
 23 55  1  0
 23 56  1  0
 24 57  1  0
 24 58  1  0
M  END
>  <Energy>  (370) 
478.95016119659289

>  <compound_id>  (370) 
5964

>  <target_id>  (370) 
1

>  <reference_id>  (370) 
46

>  <inspiration_ids>  (370) 
[3, 46]

>  <energy_score>  (370) 
401.403643710702

>  <distance_score>  (370) 
3.0162216934953383

>  <path>  (370) 
/opt/xchem-fragalysis-2/maxwin/BulkDock/SCRATCH/511014/C5964-P46/C5964-P46.minimised.mol

>  <scratch_subdir>  (370) 
/opt/xchem-fragalysis-2/maxwin/BulkDock/SCRATCH/511014/C5964-P46

>  <fragmenstein_runtime>  (370) 
16.822009086608887

>  <fragmenstein_outcome>  (370) 
too moved

>  <fragmenstein_mode>  (370) 
expansion

>  <fragmenstein_error>  (370) 


$$$$
C12666-P101
     RDKit          3D

 48 49  0  0  0  0  0  0  0  0999 V2000
  -10.9301  -20.2457   15.9767 C   0  0  0  0  0  0  0  0  0  0  0  0
  -10.6220  -18.7551   16.1712 C   0  0  0  0  0  0  0  0  0  0  0  0
  -10.0190  -18.6418   17.5976 C   0  0  0  0  0  0  0  0  0  0  0  0
   -9.6528  -18.1484   15.0630 C   0  0  0  0  0  0  0  0  0  0  0  0
  -10.0719  -17.5369   13.6112 C   0  0  0  0  0  0  0  0  0  0  0  0
   -8.6740  -17.1953   12.8981 C   0  0  0  0  0  0  0  0  0  0  0  0
   -8.5372  -15.9413   12.1517 N   0  0  0  0  0  0  0  0  0  0  0  0
   -8.2521  -14.5938   12.6020 C   0  0  0  0  0  0  0  0  0  0  0  0
   -8.1335  -14.1488   13.7074 O   0  0  0  0  0  0  0  0  0  0  0  0
   -8.0330  -13.6734   11.3703 C   0  0  0  0  0  0  0  0  0  0  0  0
   -7.9305  -12.1686   11.7145 C   0  0  0  0  0  0  0  0  0  0  0  0
   -7.3234  -11.3329   10.6301 C   0  0  0  0  0  0  0  0  0  0  0  0
   -6.4521  -11.7206    9.7203 N   0  0  0  0  0  0  0  0  0  0  0  0
   -6.0889  -10.5839    9.0460 C   0  0  0  0  0  0  0  0  0  0  0  0
   -6.7552   -9.4931    9.5425 C   0  0  0  0  0  0  0  0  0  0  0  0
   -7.5611   -9.9817   10.5285 N   0  0  0  0  0  0  0  0  0  0  0  0
  -10.9662  -16.3540   13.4531 N   0  0  0  0  0  0  0  0  0  0  0  0
  -11.3759  -15.6220   12.2648 C   0  0  0  0  0  0  0  0  0  0  0  0
  -11.1620  -15.8346   11.1052 O   0  0  0  0  0  0  0  0  0  0  0  0
  -12.0982  -14.3358   12.5334 C   0  0  0  0  0  0  0  0  0  0  0  0
  -12.0710  -13.1739   11.6840 C   0  0  0  0  0  0  0  0  0  0  0  0
  -12.7237  -12.1130   12.1776 N   0  0  0  0  0  0  0  0  0  0  0  0
  -13.1978  -12.5754   13.3453 N   0  0  0  0  0  0  0  0  0  0  0  0
  -12.8913  -13.8946   13.5741 C   0  0  0  0  0  0  0  0  0  0  0  0
  -10.0212  -20.8542   16.0349 H   0  0  0  0  0  0  0  0  0  0  0  0
  -11.6353  -20.6060   16.7332 H   0  0  0  0  0  0  0  0  0  0  0  0
  -11.3813  -20.4105   14.9927 H   0  0  0  0  0  0  0  0  0  0  0  0
  -11.5613  -18.1973   16.1374 H   0  0  0  0  0  0  0  0  0  0  0  0
  -10.7344  -18.9851   18.3521 H   0  0  0  0  0  0  0  0  0  0  0  0
   -9.1063  -19.2409   17.6860 H   0  0  0  0  0  0  0  0  0  0  0  0
   -9.7580  -17.6054   17.8280 H   0  0  0  0  0  0  0  0  0  0  0  0
   -8.9394  -18.9552   14.8354 H   0  0  0  0  0  0  0  0  0  0  0  0
   -9.0348  -17.3848   15.5526 H   0  0  0  0  0  0  0  0  0  0  0  0
  -10.5510  -18.3406   13.0395 H   0  0  0  0  0  0  0  0  0  0  0  0
   -7.8721  -17.1691   13.6445 H   0  0  0  0  0  0  0  0  0  0  0  0
   -8.4353  -18.0072   12.2019 H   0  0  0  0  0  0  0  0  0  0  0  0
   -8.4834  -15.9705   11.1383 H   0  0  0  0  0  0  0  0  0  0  0  0
   -7.1059  -14.0140   10.8924 H   0  0  0  0  0  0  0  0  0  0  0  0
   -8.8527  -13.8237   10.6578 H   0  0  0  0  0  0  0  0  0  0  0  0
   -7.3139  -12.0357   12.6120 H   0  0  0  0  0  0  0  0  0  0  0  0
   -8.9309  -11.7943   11.9643 H   0  0  0  0  0  0  0  0  0  0  0  0
   -5.3734  -10.6178    8.2352 H   0  0  0  0  0  0  0  0  0  0  0  0
   -6.7433   -8.4510    9.2780 H   0  0  0  0  0  0  0  0  0  0  0  0
   -8.2011   -9.4489   11.1030 H   0  0  0  0  0  0  0  0  0  0  0  0
  -11.3941  -15.9367   14.2580 H   0  0  0  0  0  0  0  0  0  0  0  0
  -11.5679  -13.0826   10.7286 H   0  0  0  0  0  0  0  0  0  0  0  0
  -13.7245  -11.9487   13.9466 H   0  0  0  0  0  0  0  0  0  0  0  0
  -13.2491  -14.3766   14.4693 H   0  0  0  0  0  0  0  0  0  0  0  0
  1  2  1  0
  2  3  1  0
  2  4  1  0
  4  5  1  0
  5  6  1  0
  6  7  1  0
  7  8  1  0
  8  9  2  0
  8 10  1  0
 10 11  1  0
 11 12  1  0
 12 13  2  0
 13 14  1  0
 14 15  2  0
 15 16  1  0
  5 17  1  0
 17 18  1  0
 18 19  2  0
 18 20  1  0
 20 21  1  0
 21 22  2  0
 22 23  1  0
 23 24  1  0
 16 12  1  0
 24 20  2  0
  1 25  1  0
  1 26  1  0
  1 27  1  0
  2 28  1  0
  3 29  1  0
  3 30  1  0
  3 31  1  0
  4 32  1  0
  4 33  1  0
  5 34  1  0
  6 35  1  0
  6 36  1  0
  7 37  1  0
 10 38  1  0
 10 39  1  0
 11 40  1  0
 11 41  1  0
 14 42  1  0
 15 43  1  0
 16 44  1  0
 17 45  1  0
 21 46  1  0
 23 47  1  0
 24 48  1  0
M  END
>  <Energy>  (371) 
17.141838899039517

>  <compound_id>  (371) 
12666

>  <target_id>  (371) 
1

>  <reference_id>  (371) 
101

>  <inspiration_ids>  (371) 
[101, 127]

>  <energy_score>  (371) 
-8.211271294159076

>  <distance_score>  (371) 
14.181499944802043

>  <path>  (371) 
/opt/xchem-fragalysis-2/maxwin/BulkDock/SCRATCH/511014/C12666-P101/C12666-P101.minimised.mol

>  <scratch_subdir>  (371) 
/opt/xchem-fragalysis-2/maxwin/BulkDock/SCRATCH/511014/C12666-P101

>  <fragmenstein_runtime>  (371) 
57.21325731277466

>  <fragmenstein_outcome>  (371) 
too moved

>  <fragmenstein_mode>  (371) 
expansion

>  <fragmenstein_error>  (371) 


$$$$
C12666-P127
     RDKit          3D

 48 49  0  0  0  0  0  0  0  0999 V2000
  -10.2261  -14.0280   13.0488 C   0  0  0  0  0  0  0  0  0  0  0  0
  -11.0115  -12.7075   12.8802 C   0  0  0  0  0  0  0  0  0  0  0  0
  -11.9383  -12.3734   14.0450 C   0  0  0  0  0  0  0  0  0  0  0  0
  -10.0269  -11.5488   12.5014 C   0  0  0  0  0  0  0  0  0  0  0  0
  -10.5561  -10.0902   12.3153 C   0  0  0  0  0  0  0  0  0  0  0  0
   -9.3299   -9.0733   12.0936 C   0  0  0  0  0  0  0  0  0  0  0  0
   -9.3306   -7.7810   10.9005 N   0  0  0  0  0  0  0  0  0  0  0  0
  -10.0110   -5.6474   11.0442 C   0  0  0  0  0  0  0  0  0  0  0  0
  -10.5769   -5.0520   11.9695 O   0  0  0  0  0  0  0  0  0  0  0  0
   -9.5804   -4.4063    9.6568 C   0  0  0  0  0  0  0  0  0  0  0  0
   -8.5493   -4.1439    8.4769 C   0  0  0  0  0  0  0  0  0  0  0  0
   -8.3769   -2.7314    7.9977 C   0  0  0  0  0  0  0  0  0  0  0  0
   -7.2699   -2.2210    7.4902 N   0  0  0  0  0  0  0  0  0  0  0  0
   -7.5454   -0.9073    7.2294 C   0  0  0  0  0  0  0  0  0  0  0  0
   -8.8473   -0.6163    7.5522 C   0  0  0  0  0  0  0  0  0  0  0  0
   -9.3749   -1.7908    8.0160 N   0  0  0  0  0  0  0  0  0  0  0  0
  -11.6388   -9.9468   11.3605 N   0  0  0  0  0  0  0  0  0  0  0  0
  -13.0470   -9.7540   11.5577 C   0  0  0  0  0  0  0  0  0  0  0  0
  -13.6994   -9.7430   12.5571 O   0  0  0  0  0  0  0  0  0  0  0  0
  -13.7464   -9.4228   10.3122 C   0  0  0  0  0  0  0  0  0  0  0  0
  -14.6522   -8.3333   10.1918 C   0  0  0  0  0  0  0  0  0  0  0  0
  -14.9902   -8.0694    8.9274 N   0  0  0  0  0  0  0  0  0  0  0  0
  -14.4442   -9.0929    8.2473 N   0  0  0  0  0  0  0  0  0  0  0  0
  -13.6375   -9.8905    9.0205 C   0  0  0  0  0  0  0  0  0  0  0  0
   -9.4835  -13.9623   13.8414 H   0  0  0  0  0  0  0  0  0  0  0  0
   -9.6676  -14.2321   12.1266 H   0  0  0  0  0  0  0  0  0  0  0  0
  -10.8929  -14.8822   13.1854 H   0  0  0  0  0  0  0  0  0  0  0  0
  -11.6616  -12.8461   12.0050 H   0  0  0  0  0  0  0  0  0  0  0  0
  -12.7252  -13.1256   14.1472 H   0  0  0  0  0  0  0  0  0  0  0  0
  -11.3943  -12.2284   14.9705 H   0  0  0  0  0  0  0  0  0  0  0  0
  -12.4686  -11.4374   13.8644 H   0  0  0  0  0  0  0  0  0  0  0  0
   -9.2451  -11.5155   13.2729 H   0  0  0  0  0  0  0  0  0  0  0  0
   -9.5254  -11.8405   11.5683 H   0  0  0  0  0  0  0  0  0  0  0  0
  -10.9916   -9.7930   13.2762 H   0  0  0  0  0  0  0  0  0  0  0  0
   -8.8901   -8.7523   13.0497 H   0  0  0  0  0  0  0  0  0  0  0  0
   -8.5310   -9.6748   11.6347 H   0  0  0  0  0  0  0  0  0  0  0  0
   -8.7978   -7.9980   10.0208 H   0  0  0  0  0  0  0  0  0  0  0  0
   -9.8104   -3.4843   10.1943 H   0  0  0  0  0  0  0  0  0  0  0  0
  -10.3870   -4.6334    9.0843 H   0  0  0  0  0  0  0  0  0  0  0  0
   -8.8793   -4.6723    7.5690 H   0  0  0  0  0  0  0  0  0  0  0  0
   -7.5764   -4.5704    8.7147 H   0  0  0  0  0  0  0  0  0  0  0  0
   -6.7953   -0.2432    6.8223 H   0  0  0  0  0  0  0  0  0  0  0  0
   -9.4309    0.2905    7.4962 H   0  0  0  0  0  0  0  0  0  0  0  0
  -10.3170   -1.9541    8.3623 H   0  0  0  0  0  0  0  0  0  0  0  0
  -11.4453   -9.9749   10.3673 H   0  0  0  0  0  0  0  0  0  0  0  0
  -15.0049   -7.6938   10.9896 H   0  0  0  0  0  0  0  0  0  0  0  0
  -14.6277   -9.1652    7.2496 H   0  0  0  0  0  0  0  0  0  0  0  0
  -13.0735  -10.7008    8.5808 H   0  0  0  0  0  0  0  0  0  0  0  0
  1  2  1  0
  2  3  1  0
  2  4  1  0
  4  5  1  0
  5  6  1  0
  6  7  1  0
  7  8  1  0
  8  9  2  0
  8 10  1  0
 10 11  1  0
 11 12  1  0
 12 13  2  0
 13 14  1  0
 14 15  2  0
 15 16  1  0
  5 17  1  0
 17 18  1  0
 18 19  2  0
 18 20  1  0
 20 21  1  0
 21 22  2  0
 22 23  1  0
 23 24  1  0
 16 12  1  0
 24 20  2  0
  1 25  1  0
  1 26  1  0
  1 27  1  0
  2 28  1  0
  3 29  1  0
  3 30  1  0
  3 31  1  0
  4 32  1  0
  4 33  1  0
  5 34  1  0
  6 35  1  0
  6 36  1  0
  7 37  1  0
 10 38  1  0
 10 39  1  0
 11 40  1  0
 11 41  1  0
 14 42  1  0
 15 43  1  0
 16 44  1  0
 17 45  1  0
 21 46  1  0
 23 47  1  0
 24 48  1  0
M  END
>  <Energy>  (372) 
453.00584516527772

>  <compound_id>  (372) 
12666

>  <target_id>  (372) 
1

>  <reference_id>  (372) 
127

>  <inspiration_ids>  (372) 
[101, 127]

>  <energy_score>  (372) 
427.65273497207363

>  <distance_score>  (372) 
11.825666872936345

>  <path>  (372) 
/opt/xchem-fragalysis-2/maxwin/BulkDock/SCRATCH/511014/C12666-P127/C12666-P127.minimised.mol

>  <scratch_subdir>  (372) 
/opt/xchem-fragalysis-2/maxwin/BulkDock/SCRATCH/511014/C12666-P127

>  <fragmenstein_runtime>  (372) 
58.820372343063354

>  <fragmenstein_outcome>  (372) 
too moved

>  <fragmenstein_mode>  (372) 
expansion

>  <fragmenstein_error>  (372) 


$$$$
C12667-P101
     RDKit          3D

 51 52  0  0  0  0  0  0  0  0999 V2000
   -8.9462   -4.1645   21.6470 C   0  0  0  0  0  0  0  0  0  0  0  0
   -8.8474   -4.3527   20.1159 C   0  0  0  0  0  0  0  0  0  0  0  0
   -8.5560   -5.7980   19.7562 C   0  0  0  0  0  0  0  0  0  0  0  0
  -10.0096   -3.6434   19.2838 C   0  0  0  0  0  0  0  0  0  0  0  0
   -9.6966   -3.3685   17.7764 C   0  0  0  0  0  0  0  0  0  0  0  0
   -9.4697   -4.6230   16.9373 C   0  0  0  0  0  0  0  0  0  0  0  0
   -9.3828   -4.4133   15.5015 N   0  0  0  0  0  0  0  0  0  0  0  0
   -8.6101   -5.0542   14.5209 C   0  0  0  0  0  0  0  0  0  0  0  0
   -7.7605   -5.8905   14.6209 O   0  0  0  0  0  0  0  0  0  0  0  0
   -8.8554   -4.4699   13.0359 C   0  0  0  0  0  0  0  0  0  0  0  0
   -9.7854   -4.1682   11.5190 C   0  0  0  0  0  0  0  0  0  0  0  0
  -10.2949   -2.3443   11.0748 C   0  0  0  0  0  0  0  0  0  0  0  0
  -11.1481   -1.5927   11.7507 N   0  0  0  0  0  0  0  0  0  0  0  0
  -11.3919   -0.4471   11.0166 C   0  0  0  0  0  0  0  0  0  0  0  0
  -10.6027   -0.3802    9.9074 C   0  0  0  0  0  0  0  0  0  0  0  0
   -9.9277   -1.5714    9.8793 N   0  0  0  0  0  0  0  0  0  0  0  0
   -9.1799   -1.9640    8.6866 C   0  0  0  0  0  0  0  0  0  0  0  0
  -10.5416   -2.4348   17.0031 N   0  0  0  0  0  0  0  0  0  0  0  0
  -10.5812   -1.0332   16.9749 C   0  0  0  0  0  0  0  0  0  0  0  0
   -9.9908   -0.2256   17.6393 O   0  0  0  0  0  0  0  0  0  0  0  0
  -11.6400   -0.2771   15.5748 C   0  0  0  0  0  0  0  0  0  0  0  0
  -12.3061   -0.5047   14.3311 C   0  0  0  0  0  0  0  0  0  0  0  0
  -13.1129    0.3970   13.7430 N   0  0  0  0  0  0  0  0  0  0  0  0
  -12.7361    1.4796   14.3544 N   0  0  0  0  0  0  0  0  0  0  0  0
  -11.7888    1.1647   15.2683 C   0  0  0  0  0  0  0  0  0  0  0  0
   -9.9726   -4.0102   21.9858 H   0  0  0  0  0  0  0  0  0  0  0  0
   -8.4570   -4.9543   22.2238 H   0  0  0  0  0  0  0  0  0  0  0  0
   -8.4285   -3.2332   21.9125 H   0  0  0  0  0  0  0  0  0  0  0  0
   -7.9346   -3.8008   19.8437 H   0  0  0  0  0  0  0  0  0  0  0  0
   -8.1956   -6.3466   20.6234 H   0  0  0  0  0  0  0  0  0  0  0  0
   -7.7627   -5.7957   19.0045 H   0  0  0  0  0  0  0  0  0  0  0  0
   -9.3953   -6.3102   19.3100 H   0  0  0  0  0  0  0  0  0  0  0  0
  -10.9350   -4.2209   19.3633 H   0  0  0  0  0  0  0  0  0  0  0  0
  -10.2127   -2.6747   19.7588 H   0  0  0  0  0  0  0  0  0  0  0  0
   -8.7336   -2.8372   17.7909 H   0  0  0  0  0  0  0  0  0  0  0  0
  -10.2771   -5.3341   17.1097 H   0  0  0  0  0  0  0  0  0  0  0  0
   -8.5244   -5.0855   17.2153 H   0  0  0  0  0  0  0  0  0  0  0  0
   -9.9426   -3.7028   15.0608 H   0  0  0  0  0  0  0  0  0  0  0  0
   -8.0510   -5.0128   12.5548 H   0  0  0  0  0  0  0  0  0  0  0  0
   -8.3419   -3.5861   13.3446 H   0  0  0  0  0  0  0  0  0  0  0  0
   -9.4088   -4.5710   10.5734 H   0  0  0  0  0  0  0  0  0  0  0  0
  -10.5420   -4.9317   11.4738 H   0  0  0  0  0  0  0  0  0  0  0  0
  -12.1104    0.2880   11.3523 H   0  0  0  0  0  0  0  0  0  0  0  0
  -10.5161    0.3568    9.1227 H   0  0  0  0  0  0  0  0  0  0  0  0
   -8.8459   -2.9995    8.7497 H   0  0  0  0  0  0  0  0  0  0  0  0
   -8.3234   -1.2917    8.5856 H   0  0  0  0  0  0  0  0  0  0  0  0
   -9.8399   -1.8499    7.8210 H   0  0  0  0  0  0  0  0  0  0  0  0
  -11.0920   -2.7805   16.2628 H   0  0  0  0  0  0  0  0  0  0  0  0
  -12.1476   -1.3266   13.6864 H   0  0  0  0  0  0  0  0  0  0  0  0
  -13.0691    2.4012   14.0766 H   0  0  0  0  0  0  0  0  0  0  0  0
  -11.3048    2.0266   15.7146 H   0  0  0  0  0  0  0  0  0  0  0  0
  1  2  1  0
  2  3  1  0
  2  4  1  0
  4  5  1  0
  5  6  1  0
  6  7  1  0
  7  8  1  0
  8  9  2  0
  8 10  1  0
 10 11  1  0
 11 12  1  0
 12 13  2  0
 13 14  1  0
 14 15  2  0
 15 16  1  0
 16 17  1  0
  5 18  1  0
 18 19  1  0
 19 20  2  0
 19 21  1  0
 21 22  1  0
 22 23  2  0
 23 24  1  0
 24 25  1  0
 16 12  1  0
 25 21  2  0
  1 26  1  0
  1 27  1  0
  1 28  1  0
  2 29  1  0
  3 30  1  0
  3 31  1  0
  3 32  1  0
  4 33  1  0
  4 34  1  0
  5 35  1  0
  6 36  1  0
  6 37  1  0
  7 38  1  0
 10 39  1  0
 10 40  1  0
 11 41  1  0
 11 42  1  0
 14 43  1  0
 15 44  1  0
 17 45  1  0
 17 46  1  0
 17 47  1  0
 18 48  1  0
 22 49  1  0
 24 50  1  0
 25 51  1  0
M  END
>  <Energy>  (373) 
229.63218252497785

>  <compound_id>  (373) 
12667

>  <target_id>  (373) 
1

>  <reference_id>  (373) 
101

>  <inspiration_ids>  (373) 
[101, 127]

>  <energy_score>  (373) 
191.85422962463952

>  <distance_score>  (373) 
12.452345356702168

>  <path>  (373) 
/opt/xchem-fragalysis-2/maxwin/BulkDock/SCRATCH/511014/C12667-P101/C12667-P101.minimised.mol

>  <scratch_subdir>  (373) 
/opt/xchem-fragalysis-2/maxwin/BulkDock/SCRATCH/511014/C12667-P101

>  <fragmenstein_runtime>  (373) 
43.14145612716675

>  <fragmenstein_outcome>  (373) 
too moved

>  <fragmenstein_mode>  (373) 
expansion

>  <fragmenstein_error>  (373) 


$$$$
C12667-P127
     RDKit          3D

 51 52  0  0  0  0  0  0  0  0999 V2000
   -2.3181   -6.4342   18.0492 C   0  0  0  0  0  0  0  0  0  0  0  0
   -3.0531   -6.9293   16.8019 C   0  0  0  0  0  0  0  0  0  0  0  0
   -2.2483   -8.1260   16.2634 C   0  0  0  0  0  0  0  0  0  0  0  0
   -3.5041   -5.7715   15.7625 C   0  0  0  0  0  0  0  0  0  0  0  0
   -5.0742   -5.4406   15.7214 C   0  0  0  0  0  0  0  0  0  0  0  0
   -6.0452   -5.5236   14.4101 C   0  0  0  0  0  0  0  0  0  0  0  0
   -5.7976   -5.6489   12.9649 N   0  0  0  0  0  0  0  0  0  0  0  0
   -5.9201   -6.7759   12.0789 C   0  0  0  0  0  0  0  0  0  0  0  0
   -6.1772   -7.9260   12.3072 O   0  0  0  0  0  0  0  0  0  0  0  0
   -5.7808   -6.3427   10.4213 C   0  0  0  0  0  0  0  0  0  0  0  0
   -6.8292   -5.1706    9.2406 C   0  0  0  0  0  0  0  0  0  0  0  0
   -6.7597   -4.1922    7.7360 C   0  0  0  0  0  0  0  0  0  0  0  0
   -5.6679   -3.6582    7.1734 N   0  0  0  0  0  0  0  0  0  0  0  0
   -6.0526   -2.8489    6.1502 C   0  0  0  0  0  0  0  0  0  0  0  0
   -7.4103   -2.7397    6.1444 C   0  0  0  0  0  0  0  0  0  0  0  0
   -7.8370   -3.4952    7.2109 N   0  0  0  0  0  0  0  0  0  0  0  0
   -9.1400   -3.3048    7.7697 C   0  0  0  0  0  0  0  0  0  0  0  0
   -5.5937   -4.3368   16.5259 N   0  0  0  0  0  0  0  0  0  0  0  0
   -6.8601   -4.1678   17.1819 C   0  0  0  0  0  0  0  0  0  0  0  0
   -7.7794   -4.9193   17.3034 O   0  0  0  0  0  0  0  0  0  0  0  0
   -7.1005   -2.8184   17.7035 C   0  0  0  0  0  0  0  0  0  0  0  0
   -6.3213   -1.6488   17.7959 C   0  0  0  0  0  0  0  0  0  0  0  0
   -6.9744   -0.6289   18.3612 N   0  0  0  0  0  0  0  0  0  0  0  0
   -8.1998   -1.1225   18.5973 N   0  0  0  0  0  0  0  0  0  0  0  0
   -8.3299   -2.4159   18.2109 C   0  0  0  0  0  0  0  0  0  0  0  0
   -2.8511   -5.6006   18.5159 H   0  0  0  0  0  0  0  0  0  0  0  0
   -2.1629   -7.2329   18.7813 H   0  0  0  0  0  0  0  0  0  0  0  0
   -1.3292   -6.0478   17.7750 H   0  0  0  0  0  0  0  0  0  0  0  0
   -3.9827   -7.3266   17.1162 H   0  0  0  0  0  0  0  0  0  0  0  0
   -1.1707   -7.9519   16.3652 H   0  0  0  0  0  0  0  0  0  0  0  0
   -2.4885   -9.0420   16.8133 H   0  0  0  0  0  0  0  0  0  0  0  0
   -2.4165   -8.2858   15.1966 H   0  0  0  0  0  0  0  0  0  0  0  0
   -2.9489   -4.8630   16.0159 H   0  0  0  0  0  0  0  0  0  0  0  0
   -3.2012   -6.0841   14.7604 H   0  0  0  0  0  0  0  0  0  0  0  0
   -5.5079   -6.2296   16.3438 H   0  0  0  0  0  0  0  0  0  0  0  0
   -6.6307   -4.5939   14.4316 H   0  0  0  0  0  0  0  0  0  0  0  0
   -6.8004   -6.2898   14.6352 H   0  0  0  0  0  0  0  0  0  0  0  0
   -5.4961   -4.8643   12.4459 H   0  0  0  0  0  0  0  0  0  0  0  0
   -6.0747   -7.3459   10.0390 H   0  0  0  0  0  0  0  0  0  0  0  0
   -4.7138   -6.1484   10.3526 H   0  0  0  0  0  0  0  0  0  0  0  0
   -7.5360   -4.5606    9.7866 H   0  0  0  0  0  0  0  0  0  0  0  0
   -7.3374   -5.9396    8.7853 H   0  0  0  0  0  0  0  0  0  0  0  0
   -5.3332   -2.3712    5.5006 H   0  0  0  0  0  0  0  0  0  0  0  0
   -8.0923   -2.1615    5.5378 H   0  0  0  0  0  0  0  0  0  0  0  0
   -9.8788   -3.4517    6.9783 H   0  0  0  0  0  0  0  0  0  0  0  0
   -9.2950   -4.0084    8.5787 H   0  0  0  0  0  0  0  0  0  0  0  0
   -9.2032   -2.2829    8.1546 H   0  0  0  0  0  0  0  0  0  0  0  0
   -5.0924   -3.4625   16.5495 H   0  0  0  0  0  0  0  0  0  0  0  0
   -5.2946   -1.4823   17.4994 H   0  0  0  0  0  0  0  0  0  0  0  0
   -8.8962   -0.5114   19.0125 H   0  0  0  0  0  0  0  0  0  0  0  0
   -9.2620   -2.9523   18.3258 H   0  0  0  0  0  0  0  0  0  0  0  0
  1  2  1  0
  2  3  1  0
  2  4  1  0
  4  5  1  0
  5  6  1  0
  6  7  1  0
  7  8  1  0
  8  9  2  0
  8 10  1  0
 10 11  1  0
 11 12  1  0
 12 13  2  0
 13 14  1  0
 14 15  2  0
 15 16  1  0
 16 17  1  0
  5 18  1  0
 18 19  1  0
 19 20  2  0
 19 21  1  0
 21 22  1  0
 22 23  2  0
 23 24  1  0
 24 25  1  0
 16 12  1  0
 25 21  2  0
  1 26  1  0
  1 27  1  0
  1 28  1  0
  2 29  1  0
  3 30  1  0
  3 31  1  0
  3 32  1  0
  4 33  1  0
  4 34  1  0
  5 35  1  0
  6 36  1  0
  6 37  1  0
  7 38  1  0
 10 39  1  0
 10 40  1  0
 11 41  1  0
 11 42  1  0
 14 43  1  0
 15 44  1  0
 17 45  1  0
 17 46  1  0
 17 47  1  0
 18 48  1  0
 22 49  1  0
 24 50  1  0
 25 51  1  0
M  END
>  <Energy>  (374) 
177.11167926905816

>  <compound_id>  (374) 
12667

>  <target_id>  (374) 
1

>  <reference_id>  (374) 
127

>  <inspiration_ids>  (374) 
[101, 127]

>  <energy_score>  (374) 
139.33372636871843

>  <distance_score>  (374) 
13.284145929356686

>  <path>  (374) 
/opt/xchem-fragalysis-2/maxwin/BulkDock/SCRATCH/511014/C12667-P127/C12667-P127.minimised.mol

>  <scratch_subdir>  (374) 
/opt/xchem-fragalysis-2/maxwin/BulkDock/SCRATCH/511014/C12667-P127

>  <fragmenstein_runtime>  (374) 
51.450597286224365

>  <fragmenstein_outcome>  (374) 
too moved

>  <fragmenstein_mode>  (374) 
expansion

>  <fragmenstein_error>  (374) 


$$$$
C17232-P96
     RDKit          3D

 39 40  0  0  0  0  0  0  0  0999 V2000
   -2.3557   -4.5157   33.1483 C   0  0  0  0  0  0  0  0  0  0  0  0
   -2.7929   -5.4259   32.0597 C   0  0  0  0  0  0  0  0  0  0  0  0
   -4.2400   -5.9159   32.4403 C   0  0  0  0  0  0  0  0  0  0  0  0
   -4.9812   -7.0778   32.1178 N   0  0  0  0  0  0  0  0  0  0  0  0
   -5.6210   -7.6059   30.6925 C   0  0  0  0  0  0  0  0  0  0  0  0
   -5.5808   -6.9468   29.7273 O   0  0  0  0  0  0  0  0  0  0  0  0
   -6.4049   -9.4457   30.2374 C   0  0  0  0  0  0  0  0  0  0  0  0
   -7.1914  -11.1500   30.3383 O   0  0  0  0  0  0  0  0  0  0  0  0
   -7.9172  -12.4411   31.3084 C   0  0  0  0  0  0  0  0  0  0  0  0
   -7.2453  -13.6291   32.3176 C   0  0  0  0  0  0  0  0  0  0  0  0
   -8.2861  -14.3139   32.8467 C   0  0  0  0  0  0  0  0  0  0  0  0
   -9.4120  -13.8388   32.2549 O   0  0  0  0  0  0  0  0  0  0  0  0
   -9.1893  -12.7759   31.3619 N   0  0  0  0  0  0  0  0  0  0  0  0
   -2.6112   -4.6034   30.8253 N   0  0  0  0  0  0  0  0  0  0  0  0
   -2.0742   -3.2579   30.6438 C   0  0  0  0  0  0  0  0  0  0  0  0
   -1.7167   -2.4440   31.4491 O   0  0  0  0  0  0  0  0  0  0  0  0
   -1.9792   -2.8639   29.2223 C   0  0  0  0  0  0  0  0  0  0  0  0
   -1.3150   -3.5481   28.1785 C   0  0  0  0  0  0  0  0  0  0  0  0
   -1.3491   -2.6943   27.1019 C   0  0  0  0  0  0  0  0  0  0  0  0
   -2.0251   -1.5892   27.5203 N   0  0  0  0  0  0  0  0  0  0  0  0
   -2.3425   -0.4180   26.7391 C   0  0  0  0  0  0  0  0  0  0  0  0
   -2.4828   -1.6935   28.7781 N   0  0  0  0  0  0  0  0  0  0  0  0
   -1.3336   -4.1672   32.9876 H   0  0  0  0  0  0  0  0  0  0  0  0
   -2.4379   -5.0522   34.0736 H   0  0  0  0  0  0  0  0  0  0  0  0
   -2.9615   -3.6085   33.2046 H   0  0  0  0  0  0  0  0  0  0  0  0
   -2.1703   -6.3032   31.9402 H   0  0  0  0  0  0  0  0  0  0  0  0
   -4.3379   -5.8092   31.3907 H   0  0  0  0  0  0  0  0  0  0  0  0
   -4.8930   -5.2143   32.9251 H   0  0  0  0  0  0  0  0  0  0  0  0
   -5.1910   -7.7396   32.8175 H   0  0  0  0  0  0  0  0  0  0  0  0
   -6.7887   -9.0797   29.2855 H   0  0  0  0  0  0  0  0  0  0  0  0
   -5.5738   -9.8428   29.6128 H   0  0  0  0  0  0  0  0  0  0  0  0
   -6.1991  -13.7931   32.5439 H   0  0  0  0  0  0  0  0  0  0  0  0
   -8.4119  -15.1064   33.5611 H   0  0  0  0  0  0  0  0  0  0  0  0
   -2.8845   -4.9755   29.9228 H   0  0  0  0  0  0  0  0  0  0  0  0
   -0.8155   -4.5027   28.2357 H   0  0  0  0  0  0  0  0  0  0  0  0
   -0.9526   -2.7774   26.1012 H   0  0  0  0  0  0  0  0  0  0  0  0
   -3.4300   -0.3331   26.6712 H   0  0  0  0  0  0  0  0  0  0  0  0
   -1.9125   -0.5199   25.7397 H   0  0  0  0  0  0  0  0  0  0  0  0
   -1.9182    0.4548   27.2415 H   0  0  0  0  0  0  0  0  0  0  0  0
  1  2  1  0
  2  3  1  0
  3  4  1  0
  4  5  1  0
  5  6  2  0
  5  7  1  0
  7  8  1  0
  8  9  1  0
  9 10  1  0
 10 11  2  0
 11 12  1  0
 12 13  1  0
  2 14  1  0
 14 15  1  0
 15 16  2  0
 15 17  1  0
 17 18  1  0
 18 19  2  0
 19 20  1  0
 20 21  1  0
 20 22  1  0
 13  9  2  0
 22 17  2  0
  1 23  1  0
  1 24  1  0
  1 25  1  0
  2 26  1  0
  3 27  1  0
  3 28  1  0
  4 29  1  0
  7 30  1  0
  7 31  1  0
 10 32  1  0
 11 33  1  0
 14 34  1  0
 18 35  1  0
 19 36  1  0
 21 37  1  0
 21 38  1  0
 21 39  1  0
M  END
>  <Energy>  (375) 
470.6405085641041

>  <compound_id>  (375) 
17232

>  <target_id>  (375) 
1

>  <reference_id>  (375) 
96

>  <inspiration_ids>  (375) 
[96, 59]

>  <energy_score>  (375) 
392.82209758023714

>  <distance_score>  (375) 
7.623355151840174

>  <path>  (375) 
/opt/xchem-fragalysis-2/maxwin/BulkDock/SCRATCH/511014/C17232-P96/C17232-P96.minimised.mol

>  <scratch_subdir>  (375) 
/opt/xchem-fragalysis-2/maxwin/BulkDock/SCRATCH/511014/C17232-P96

>  <fragmenstein_runtime>  (375) 
12.307352066040039

>  <fragmenstein_outcome>  (375) 
too moved

>  <fragmenstein_mode>  (375) 
expansion

>  <fragmenstein_error>  (375) 


$$$$
C17232-P59
     RDKit          3D

 39 40  0  0  0  0  0  0  0  0999 V2000
   -8.2685   -1.8386   34.8167 C   0  0  0  0  0  0  0  0  0  0  0  0
   -7.1321   -2.7877   35.3059 C   0  0  0  0  0  0  0  0  0  0  0  0
   -7.0113   -4.8047   35.2613 C   0  0  0  0  0  0  0  0  0  0  0  0
   -8.1281   -6.1624   35.0051 N   0  0  0  0  0  0  0  0  0  0  0  0
   -8.5180   -7.1105   33.5462 C   0  0  0  0  0  0  0  0  0  0  0  0
   -7.9940   -6.8897   32.5207 O   0  0  0  0  0  0  0  0  0  0  0  0
   -9.6940   -8.7581   33.3798 C   0  0  0  0  0  0  0  0  0  0  0  0
   -9.3501  -10.3903   32.3582 O   0  0  0  0  0  0  0  0  0  0  0  0
   -8.4775  -11.7734   32.7751 C   0  0  0  0  0  0  0  0  0  0  0  0
   -7.1653  -12.2142   32.4325 C   0  0  0  0  0  0  0  0  0  0  0  0
   -7.3005  -13.4971   31.9124 C   0  0  0  0  0  0  0  0  0  0  0  0
   -8.4544  -14.0472   32.5822 O   0  0  0  0  0  0  0  0  0  0  0  0
   -9.0795  -12.9569   33.1659 N   0  0  0  0  0  0  0  0  0  0  0  0
   -5.8585   -2.1332   34.8284 N   0  0  0  0  0  0  0  0  0  0  0  0
   -4.6986   -1.7141   35.5386 C   0  0  0  0  0  0  0  0  0  0  0  0
   -4.4635   -1.7000   36.7106 O   0  0  0  0  0  0  0  0  0  0  0  0
   -3.6585   -1.2572   34.5558 C   0  0  0  0  0  0  0  0  0  0  0  0
   -2.3507   -0.7880   34.8534 C   0  0  0  0  0  0  0  0  0  0  0  0
   -1.7372   -0.5831   33.6410 C   0  0  0  0  0  0  0  0  0  0  0  0
   -2.6481   -0.9485   32.6998 N   0  0  0  0  0  0  0  0  0  0  0  0
   -2.4111   -1.0498   31.2792 C   0  0  0  0  0  0  0  0  0  0  0  0
   -3.8571   -1.2721   33.2121 N   0  0  0  0  0  0  0  0  0  0  0  0
   -9.2709   -2.1543   35.1197 H   0  0  0  0  0  0  0  0  0  0  0  0
   -8.2055   -1.6457   33.7471 H   0  0  0  0  0  0  0  0  0  0  0  0
   -8.1255   -0.8483   35.2737 H   0  0  0  0  0  0  0  0  0  0  0  0
   -7.2353   -2.4803   36.3670 H   0  0  0  0  0  0  0  0  0  0  0  0
   -7.7431   -4.7730   35.9425 H   0  0  0  0  0  0  0  0  0  0  0  0
   -6.4146   -5.2693   34.5291 H   0  0  0  0  0  0  0  0  0  0  0  0
   -8.7269   -6.4413   35.7406 H   0  0  0  0  0  0  0  0  0  0  0  0
  -10.3933   -9.2964   33.9402 H   0  0  0  0  0  0  0  0  0  0  0  0
  -10.4185   -8.1787   32.8133 H   0  0  0  0  0  0  0  0  0  0  0  0
   -6.3013  -11.6102   32.3516 H   0  0  0  0  0  0  0  0  0  0  0  0
   -6.8018  -14.2405   31.3051 H   0  0  0  0  0  0  0  0  0  0  0  0
   -5.7334   -1.9223   33.8347 H   0  0  0  0  0  0  0  0  0  0  0  0
   -1.9180   -0.6593   35.8364 H   0  0  0  0  0  0  0  0  0  0  0  0
   -0.7363   -0.2621   33.3870 H   0  0  0  0  0  0  0  0  0  0  0  0
   -3.0513   -0.3309   30.7683 H   0  0  0  0  0  0  0  0  0  0  0  0
   -2.6433   -2.0703   30.9648 H   0  0  0  0  0  0  0  0  0  0  0  0
   -1.3621   -0.8275   31.0682 H   0  0  0  0  0  0  0  0  0  0  0  0
  1  2  1  0
  2  3  1  0
  3  4  1  0
  4  5  1  0
  5  6  2  0
  5  7  1  0
  7  8  1  0
  8  9  1  0
  9 10  1  0
 10 11  2  0
 11 12  1  0
 12 13  1  0
  2 14  1  0
 14 15  1  0
 15 16  2  0
 15 17  1  0
 17 18  1  0
 18 19  2  0
 19 20  1  0
 20 21  1  0
 20 22  1  0
 13  9  2  0
 22 17  2  0
  1 23  1  0
  1 24  1  0
  1 25  1  0
  2 26  1  0
  3 27  1  0
  3 28  1  0
  4 29  1  0
  7 30  1  0
  7 31  1  0
 10 32  1  0
 11 33  1  0
 14 34  1  0
 18 35  1  0
 19 36  1  0
 21 37  1  0
 21 38  1  0
 21 39  1  0
M  END
>  <Energy>  (376) 
515.49156884194292

>  <compound_id>  (376) 
17232

>  <target_id>  (376) 
1

>  <reference_id>  (376) 
59

>  <inspiration_ids>  (376) 
[96, 59]

>  <energy_score>  (376) 
437.673157858066

>  <distance_score>  (376) 
8.115967959746284

>  <path>  (376) 
/opt/xchem-fragalysis-2/maxwin/BulkDock/SCRATCH/511014/C17232-P59/C17232-P59.minimised.mol

>  <scratch_subdir>  (376) 
/opt/xchem-fragalysis-2/maxwin/BulkDock/SCRATCH/511014/C17232-P59

>  <fragmenstein_runtime>  (376) 
17.653043508529663

>  <fragmenstein_outcome>  (376) 
too moved

>  <fragmenstein_mode>  (376) 
expansion

>  <fragmenstein_error>  (376) 


$$$$
C17233-P96
     RDKit          3D

 40 41  0  0  0  0  0  0  0  0999 V2000
   -1.6820   -4.6221   29.2336 C   0  0  0  0  0  0  0  0  0  0  0  0
   -1.6981   -4.1919   30.5931 O   0  0  0  0  0  0  0  0  0  0  0  0
   -2.4750   -4.9015   31.4095 C   0  0  0  0  0  0  0  0  0  0  0  0
   -3.1732   -6.0813   31.3376 C   0  0  0  0  0  0  0  0  0  0  0  0
   -4.0977   -6.1041   32.4699 C   0  0  0  0  0  0  0  0  0  0  0  0
   -5.4149   -6.8685   32.3706 C   0  0  0  0  0  0  0  0  0  0  0  0
   -5.6450   -7.1343   31.2217 O   0  0  0  0  0  0  0  0  0  0  0  0
   -6.2043   -7.2132   33.6475 N   0  0  0  0  0  0  0  0  0  0  0  0
   -7.7195   -8.2617   33.8890 C   0  0  0  0  0  0  0  0  0  0  0  0
   -7.2858   -8.4442   35.6833 C   0  0  0  0  0  0  0  0  0  0  0  0
   -8.7629   -9.3852   32.4962 C   0  0  0  0  0  0  0  0  0  0  0  0
   -9.5460  -11.1358   32.0748 N   0  0  0  0  0  0  0  0  0  0  0  0
   -8.9573  -12.4178   31.3939 C   0  0  0  0  0  0  0  0  0  0  0  0
   -7.8974  -12.6066   30.8754 O   0  0  0  0  0  0  0  0  0  0  0  0
  -10.3424  -13.5881   31.7454 C   0  0  0  0  0  0  0  0  0  0  0  0
  -11.7210  -14.0527   30.6968 O   0  0  0  0  0  0  0  0  0  0  0  0
  -12.1392  -14.0033   29.2158 C   0  0  0  0  0  0  0  0  0  0  0  0
  -11.6878  -13.4655   27.8539 C   0  0  0  0  0  0  0  0  0  0  0  0
  -11.5987  -14.5731   26.8826 C   0  0  0  0  0  0  0  0  0  0  0  0
  -12.3391  -15.5798   27.5233 O   0  0  0  0  0  0  0  0  0  0  0  0
  -12.8361  -15.1036   28.7499 N   0  0  0  0  0  0  0  0  0  0  0  0
   -3.7632   -5.1039   33.2926 N   0  0  0  0  0  0  0  0  0  0  0  0
   -2.7966   -4.4044   32.6275 N   0  0  0  0  0  0  0  0  0  0  0  0
   -1.3341   -5.6562   29.1460 H   0  0  0  0  0  0  0  0  0  0  0  0
   -2.6778   -4.5283   28.7913 H   0  0  0  0  0  0  0  0  0  0  0  0
   -1.0012   -3.9727   28.6760 H   0  0  0  0  0  0  0  0  0  0  0  0
   -3.2255   -6.7342   30.4764 H   0  0  0  0  0  0  0  0  0  0  0  0
   -5.6787   -6.9030   34.4606 H   0  0  0  0  0  0  0  0  0  0  0  0
   -8.5862   -7.6114   33.9910 H   0  0  0  0  0  0  0  0  0  0  0  0
   -6.9292   -9.3753   36.1681 H   0  0  0  0  0  0  0  0  0  0  0  0
   -8.2215   -8.3169   36.2566 H   0  0  0  0  0  0  0  0  0  0  0  0
   -6.4154   -7.8287   35.8977 H   0  0  0  0  0  0  0  0  0  0  0  0
   -9.3680   -9.0962   33.3752 H   0  0  0  0  0  0  0  0  0  0  0  0
   -8.8943   -9.1001   31.4628 H   0  0  0  0  0  0  0  0  0  0  0  0
  -10.3767  -11.3484   32.4617 H   0  0  0  0  0  0  0  0  0  0  0  0
   -9.7044  -14.3621   32.1799 H   0  0  0  0  0  0  0  0  0  0  0  0
  -10.9165  -13.2678   32.6233 H   0  0  0  0  0  0  0  0  0  0  0  0
  -10.9820  -12.7462   27.5554 H   0  0  0  0  0  0  0  0  0  0  0  0
  -11.1741  -14.7541   25.9054 H   0  0  0  0  0  0  0  0  0  0  0  0
   -2.4660   -3.5265   33.0098 H   0  0  0  0  0  0  0  0  0  0  0  0
  1  2  1  0
  2  3  1  0
  3  4  2  0
  4  5  1  0
  5  6  1  0
  6  7  2  0
  6  8  1  0
  8  9  1  0
  9 10  1  0
  9 11  1  0
 11 12  1  0
 12 13  1  0
 13 14  2  0
 13 15  1  0
 15 16  1  0
 16 17  1  0
 17 18  1  0
 18 19  2  0
 19 20  1  0
 20 21  1  0
  5 22  2  0
 22 23  1  0
 23  3  1  0
 21 17  2  0
  1 24  1  0
  1 25  1  0
  1 26  1  0
  4 27  1  0
  8 28  1  0
  9 29  1  0
 10 30  1  0
 10 31  1  0
 10 32  1  0
 11 33  1  0
 11 34  1  0
 12 35  1  0
 15 36  1  0
 15 37  1  0
 18 38  1  0
 19 39  1  0
 23 40  1  0
M  END
>  <Energy>  (377) 
563.35442726513793

>  <compound_id>  (377) 
17233

>  <target_id>  (377) 
1

>  <reference_id>  (377) 
96

>  <inspiration_ids>  (377) 
[96, 59]

>  <energy_score>  (377) 
470.6288961697496

>  <distance_score>  (377) 
8.553694430744494

>  <path>  (377) 
/opt/xchem-fragalysis-2/maxwin/BulkDock/SCRATCH/511014/C17233-P96/C17233-P96.minimised.mol

>  <scratch_subdir>  (377) 
/opt/xchem-fragalysis-2/maxwin/BulkDock/SCRATCH/511014/C17233-P96

>  <fragmenstein_runtime>  (377) 
19.055745363235474

>  <fragmenstein_outcome>  (377) 
too moved

>  <fragmenstein_mode>  (377) 
expansion

>  <fragmenstein_error>  (377) 


$$$$
C17233-P59
     RDKit          3D

 40 41  0  0  0  0  0  0  0  0999 V2000
   -0.8687   -0.7118   30.5591 C   0  0  0  0  0  0  0  0  0  0  0  0
   -0.6646   -0.9342   31.9532 O   0  0  0  0  0  0  0  0  0  0  0  0
   -1.7730   -1.0494   32.6885 C   0  0  0  0  0  0  0  0  0  0  0  0
   -3.1168   -0.9332   32.4367 C   0  0  0  0  0  0  0  0  0  0  0  0
   -3.7883   -1.2429   33.6576 C   0  0  0  0  0  0  0  0  0  0  0  0
   -5.2659   -1.3394   33.8156 C   0  0  0  0  0  0  0  0  0  0  0  0
   -5.9283   -0.7309   33.0304 O   0  0  0  0  0  0  0  0  0  0  0  0
   -5.6483   -2.2464   34.8570 N   0  0  0  0  0  0  0  0  0  0  0  0
   -7.0041   -2.8071   35.2370 C   0  0  0  0  0  0  0  0  0  0  0  0
   -7.5902   -1.9765   36.4217 C   0  0  0  0  0  0  0  0  0  0  0  0
   -6.9487   -4.8257   35.2246 C   0  0  0  0  0  0  0  0  0  0  0  0
   -8.1341   -6.1533   34.9657 N   0  0  0  0  0  0  0  0  0  0  0  0
   -8.5222   -7.1195   33.5291 C   0  0  0  0  0  0  0  0  0  0  0  0
   -7.9932   -6.9123   32.5064 O   0  0  0  0  0  0  0  0  0  0  0  0
   -9.7015   -8.7699   33.3759 C   0  0  0  0  0  0  0  0  0  0  0  0
   -9.3642  -10.4055   32.3549 O   0  0  0  0  0  0  0  0  0  0  0  0
   -8.5859  -11.8456   32.8290 C   0  0  0  0  0  0  0  0  0  0  0  0
   -9.2251  -13.3978   33.0513 C   0  0  0  0  0  0  0  0  0  0  0  0
   -8.3655  -14.2025   32.3971 C   0  0  0  0  0  0  0  0  0  0  0  0
   -7.2719  -13.4207   31.9701 O   0  0  0  0  0  0  0  0  0  0  0  0
   -7.3100  -12.0965   32.4799 N   0  0  0  0  0  0  0  0  0  0  0  0
   -2.8986   -1.4956   34.6347 N   0  0  0  0  0  0  0  0  0  0  0  0
   -1.6993   -1.3627   34.0188 N   0  0  0  0  0  0  0  0  0  0  0  0
   -1.4229   -1.5426   30.1090 H   0  0  0  0  0  0  0  0  0  0  0  0
   -1.3892    0.2353   30.3871 H   0  0  0  0  0  0  0  0  0  0  0  0
    0.1122   -0.6549   30.0784 H   0  0  0  0  0  0  0  0  0  0  0  0
   -3.5722   -0.7003   31.4887 H   0  0  0  0  0  0  0  0  0  0  0  0
   -4.8172   -2.5144   35.3849 H   0  0  0  0  0  0  0  0  0  0  0  0
   -7.6535   -2.3801   34.4537 H   0  0  0  0  0  0  0  0  0  0  0  0
   -8.6472   -2.2036   36.5856 H   0  0  0  0  0  0  0  0  0  0  0  0
   -7.5462   -0.9099   36.1631 H   0  0  0  0  0  0  0  0  0  0  0  0
   -7.0400   -2.0638   37.3616 H   0  0  0  0  0  0  0  0  0  0  0  0
   -7.6932   -4.7723   35.8816 H   0  0  0  0  0  0  0  0  0  0  0  0
   -6.4079   -5.3133   34.4580 H   0  0  0  0  0  0  0  0  0  0  0  0
   -8.7385   -6.4193   35.7064 H   0  0  0  0  0  0  0  0  0  0  0  0
  -10.4255   -8.1920   32.8088 H   0  0  0  0  0  0  0  0  0  0  0  0
  -10.4007   -9.3028   33.9412 H   0  0  0  0  0  0  0  0  0  0  0  0
  -10.1627  -13.8686   33.2216 H   0  0  0  0  0  0  0  0  0  0  0  0
   -8.3878  -15.2110   32.1634 H   0  0  0  0  0  0  0  0  0  0  0  0
   -0.8558   -1.5190   34.5579 H   0  0  0  0  0  0  0  0  0  0  0  0
  1  2  1  0
  2  3  1  0
  3  4  2  0
  4  5  1  0
  5  6  1  0
  6  7  2  0
  6  8  1  0
  8  9  1  0
  9 10  1  0
  9 11  1  0
 11 12  1  0
 12 13  1  0
 13 14  2  0
 13 15  1  0
 15 16  1  0
 16 17  1  0
 17 18  1  0
 18 19  2  0
 19 20  1  0
 20 21  1  0
  5 22  2  0
 22 23  1  0
 23  3  1  0
 21 17  2  0
  1 24  1  0
  1 25  1  0
  1 26  1  0
  4 27  1  0
  8 28  1  0
  9 29  1  0
 10 30  1  0
 10 31  1  0
 10 32  1  0
 11 33  1  0
 11 34  1  0
 12 35  1  0
 15 36  1  0
 15 37  1  0
 18 38  1  0
 19 39  1  0
 23 40  1  0
M  END
>  <Energy>  (378) 
537.42464949325199

>  <compound_id>  (378) 
17233

>  <target_id>  (378) 
1

>  <reference_id>  (378) 
59

>  <inspiration_ids>  (378) 
[96, 59]

>  <energy_score>  (378) 
444.6991183978597

>  <distance_score>  (378) 
7.848514509577908

>  <path>  (378) 
/opt/xchem-fragalysis-2/maxwin/BulkDock/SCRATCH/511014/C17233-P59/C17233-P59.minimised.mol

>  <scratch_subdir>  (378) 
/opt/xchem-fragalysis-2/maxwin/BulkDock/SCRATCH/511014/C17233-P59

>  <fragmenstein_runtime>  (378) 
22.453547716140747

>  <fragmenstein_outcome>  (378) 
too moved

>  <fragmenstein_mode>  (378) 
expansion

>  <fragmenstein_error>  (378) 


$$$$
C17234-P96
     RDKit          3D

 44 45  0  0  0  0  0  0  0  0999 V2000
   -3.1394   -3.8893   30.2172 C   0  0  0  0  0  0  0  0  0  0  0  0
   -3.3698   -4.5533   31.6286 C   0  0  0  0  0  0  0  0  0  0  0  0
   -2.3999   -5.5188   31.8035 N   0  0  0  0  0  0  0  0  0  0  0  0
   -3.7309   -6.5531   31.6529 C   0  0  0  0  0  0  0  0  0  0  0  0
   -4.9434   -7.0521   30.3282 C   0  0  0  0  0  0  0  0  0  0  0  0
   -6.0215   -8.5036   30.3637 N   0  0  0  0  0  0  0  0  0  0  0  0
   -5.9015   -9.9976   29.5482 C   0  0  0  0  0  0  0  0  0  0  0  0
   -5.0863  -10.3371   28.6968 O   0  0  0  0  0  0  0  0  0  0  0  0
   -7.0511  -11.5307   30.0252 C   0  0  0  0  0  0  0  0  0  0  0  0
   -7.8172  -12.7859   31.2209 N   0  0  0  0  0  0  0  0  0  0  0  0
   -7.0643  -13.8172   32.2209 C   0  0  0  0  0  0  0  0  0  0  0  0
   -7.9763  -14.4613   32.9913 C   0  0  0  0  0  0  0  0  0  0  0  0
   -9.1786  -13.9470   32.4958 C   0  0  0  0  0  0  0  0  0  0  0  0
   -9.1026  -13.0149   31.4965 N   0  0  0  0  0  0  0  0  0  0  0  0
   -1.3304   -5.2736   30.9411 C   0  0  0  0  0  0  0  0  0  0  0  0
   -1.1232   -5.6675   29.8273 O   0  0  0  0  0  0  0  0  0  0  0  0
   -0.4241   -4.1785   31.7717 C   0  0  0  0  0  0  0  0  0  0  0  0
   -0.0423   -2.8991   30.9837 C   0  0  0  0  0  0  0  0  0  0  0  0
   -0.8714   -1.6801   31.2044 C   0  0  0  0  0  0  0  0  0  0  0  0
   -1.3279   -0.7734   30.2163 C   0  0  0  0  0  0  0  0  0  0  0  0
   -1.9885    0.1915   30.9247 C   0  0  0  0  0  0  0  0  0  0  0  0
   -1.9254   -0.0971   32.2464 O   0  0  0  0  0  0  0  0  0  0  0  0
   -1.2186   -1.2744   32.4309 N   0  0  0  0  0  0  0  0  0  0  0  0
   -3.4940   -4.5494   29.4231 H   0  0  0  0  0  0  0  0  0  0  0  0
   -2.1312   -3.6776   29.8718 H   0  0  0  0  0  0  0  0  0  0  0  0
   -3.4177   -2.8498   30.1925 H   0  0  0  0  0  0  0  0  0  0  0  0
   -2.9707   -3.7288   32.2475 H   0  0  0  0  0  0  0  0  0  0  0  0
   -4.2446   -4.6548   32.2737 H   0  0  0  0  0  0  0  0  0  0  0  0
   -3.0252   -7.3902   31.6008 H   0  0  0  0  0  0  0  0  0  0  0  0
   -4.2405   -6.6167   32.6286 H   0  0  0  0  0  0  0  0  0  0  0  0
   -5.6735   -6.2819   30.1530 H   0  0  0  0  0  0  0  0  0  0  0  0
   -4.2204   -7.2013   29.5398 H   0  0  0  0  0  0  0  0  0  0  0  0
   -6.8427   -8.5022   30.9408 H   0  0  0  0  0  0  0  0  0  0  0  0
   -7.1334  -12.1219   29.1416 H   0  0  0  0  0  0  0  0  0  0  0  0
   -7.4514  -10.7788   30.6846 H   0  0  0  0  0  0  0  0  0  0  0  0
   -5.9952  -13.9294   32.1204 H   0  0  0  0  0  0  0  0  0  0  0  0
   -7.7949  -15.1629   33.7883 H   0  0  0  0  0  0  0  0  0  0  0  0
  -10.1383  -14.0316   32.9783 H   0  0  0  0  0  0  0  0  0  0  0  0
   -0.9549   -3.8756   32.6786 H   0  0  0  0  0  0  0  0  0  0  0  0
    0.5074   -4.5818   32.1404 H   0  0  0  0  0  0  0  0  0  0  0  0
    0.9844   -2.6251   31.2655 H   0  0  0  0  0  0  0  0  0  0  0  0
   -0.0197   -3.0882   29.9041 H   0  0  0  0  0  0  0  0  0  0  0  0
   -1.1888   -0.8253   29.1471 H   0  0  0  0  0  0  0  0  0  0  0  0
   -2.5224    1.0932   30.6671 H   0  0  0  0  0  0  0  0  0  0  0  0
  1  2  1  0
  2  3  1  0
  3  4  1  0
  4  5  1  0
  5  6  1  0
  6  7  1  0
  7  8  2  0
  7  9  1  0
  9 10  1  0
 10 11  1  0
 11 12  2  0
 12 13  1  0
 13 14  2  0
  3 15  1  0
 15 16  2  0
 15 17  1  0
 17 18  1  0
 18 19  1  0
 19 20  1  0
 20 21  2  0
 21 22  1  0
 22 23  1  0
 14 10  1  0
 23 19  2  0
  1 24  1  0
  1 25  1  0
  1 26  1  0
  2 27  1  0
  2 28  1  0
  4 29  1  0
  4 30  1  0
  5 31  1  0
  5 32  1  0
  6 33  1  0
  9 34  1  0
  9 35  1  0
 11 36  1  0
 12 37  1  0
 13 38  1  0
 17 39  1  0
 17 40  1  0
 18 41  1  0
 18 42  1  0
 20 43  1  0
 21 44  1  0
M  END
>  <Energy>  (379) 
448.37299801103097

>  <compound_id>  (379) 
17234

>  <target_id>  (379) 
1

>  <reference_id>  (379) 
96

>  <inspiration_ids>  (379) 
[96, 59]

>  <energy_score>  (379) 
412.91401384659844

>  <distance_score>  (379) 
7.493113125152805

>  <path>  (379) 
/opt/xchem-fragalysis-2/maxwin/BulkDock/SCRATCH/511014/C17234-P96/C17234-P96.minimised.mol

>  <scratch_subdir>  (379) 
/opt/xchem-fragalysis-2/maxwin/BulkDock/SCRATCH/511014/C17234-P96

>  <fragmenstein_runtime>  (379) 
15.71040654182434

>  <fragmenstein_outcome>  (379) 
too moved

>  <fragmenstein_mode>  (379) 
expansion

>  <fragmenstein_error>  (379) 


$$$$
C17234-P59
     RDKit          3D

 44 45  0  0  0  0  0  0  0  0999 V2000
   -6.2248   -5.8583   29.8898 C   0  0  0  0  0  0  0  0  0  0  0  0
   -6.6887   -6.7113   31.7037 C   0  0  0  0  0  0  0  0  0  0  0  0
   -6.9179   -5.8350   32.7400 N   0  0  0  0  0  0  0  0  0  0  0  0
   -7.0676   -7.1076   33.5250 C   0  0  0  0  0  0  0  0  0  0  0  0
   -8.9556   -7.9612   33.3231 C   0  0  0  0  0  0  0  0  0  0  0  0
   -9.6925   -9.8317   33.0453 N   0  0  0  0  0  0  0  0  0  0  0  0
   -8.7859  -11.5755   32.7182 C   0  0  0  0  0  0  0  0  0  0  0  0
   -7.5711  -11.6748   32.5472 O   0  0  0  0  0  0  0  0  0  0  0  0
   -9.6285  -13.4621   32.7948 C   0  0  0  0  0  0  0  0  0  0  0  0
  -10.6830  -14.8365   33.3683 N   0  0  0  0  0  0  0  0  0  0  0  0
  -10.4145  -15.9585   34.1767 C   0  0  0  0  0  0  0  0  0  0  0  0
  -11.5983  -16.3724   34.8041 C   0  0  0  0  0  0  0  0  0  0  0  0
  -12.6175  -15.6637   34.1572 C   0  0  0  0  0  0  0  0  0  0  0  0
  -12.1298  -14.7901   33.2404 N   0  0  0  0  0  0  0  0  0  0  0  0
   -5.5152   -4.3774   32.6896 C   0  0  0  0  0  0  0  0  0  0  0  0
   -4.5373   -4.2961   33.1753 O   0  0  0  0  0  0  0  0  0  0  0  0
   -5.8697   -2.7775   31.8237 C   0  0  0  0  0  0  0  0  0  0  0  0
   -5.1988   -1.7007   32.7712 C   0  0  0  0  0  0  0  0  0  0  0  0
   -3.7750   -1.3093   32.4763 C   0  0  0  0  0  0  0  0  0  0  0  0
   -2.7618   -1.9581   31.7313 C   0  0  0  0  0  0  0  0  0  0  0  0
   -1.6919   -1.1055   31.7771 C   0  0  0  0  0  0  0  0  0  0  0  0
   -2.0164   -0.0223   32.5177 O   0  0  0  0  0  0  0  0  0  0  0  0
   -3.3232   -0.1397   32.9574 N   0  0  0  0  0  0  0  0  0  0  0  0
   -5.8267   -4.8485   29.8702 H   0  0  0  0  0  0  0  0  0  0  0  0
   -6.5363   -5.8778   28.7677 H   0  0  0  0  0  0  0  0  0  0  0  0
   -5.9947   -6.7560   29.2123 H   0  0  0  0  0  0  0  0  0  0  0  0
   -5.9468   -7.4382   31.8986 H   0  0  0  0  0  0  0  0  0  0  0  0
   -7.7386   -6.8348   31.7809 H   0  0  0  0  0  0  0  0  0  0  0  0
   -7.8709   -6.5910   34.1240 H   0  0  0  0  0  0  0  0  0  0  0  0
   -6.7343   -6.6233   34.4571 H   0  0  0  0  0  0  0  0  0  0  0  0
   -9.4691   -7.7167   34.2661 H   0  0  0  0  0  0  0  0  0  0  0  0
   -9.6243   -7.2991   32.7663 H   0  0  0  0  0  0  0  0  0  0  0  0
  -10.6631   -9.9896   33.2434 H   0  0  0  0  0  0  0  0  0  0  0  0
   -9.6971  -13.3683   33.7765 H   0  0  0  0  0  0  0  0  0  0  0  0
   -8.8040  -14.1750   32.6375 H   0  0  0  0  0  0  0  0  0  0  0  0
   -9.4670  -16.4151   34.3438 H   0  0  0  0  0  0  0  0  0  0  0  0
  -11.6852  -17.1611   35.5349 H   0  0  0  0  0  0  0  0  0  0  0  0
  -13.6889  -15.7424   34.2746 H   0  0  0  0  0  0  0  0  0  0  0  0
   -6.8881   -2.4318   31.6171 H   0  0  0  0  0  0  0  0  0  0  0  0
   -5.2421   -2.9176   30.9546 H   0  0  0  0  0  0  0  0  0  0  0  0
   -5.8143   -0.7929   32.7160 H   0  0  0  0  0  0  0  0  0  0  0  0
   -5.2499   -2.0075   33.8225 H   0  0  0  0  0  0  0  0  0  0  0  0
   -2.7933   -2.9029   31.2210 H   0  0  0  0  0  0  0  0  0  0  0  0
   -0.6907   -1.1187   31.3733 H   0  0  0  0  0  0  0  0  0  0  0  0
  1  2  1  0
  2  3  1  0
  3  4  1  0
  4  5  1  0
  5  6  1  0
  6  7  1  0
  7  8  2  0
  7  9  1  0
  9 10  1  0
 10 11  1  0
 11 12  2  0
 12 13  1  0
 13 14  2  0
  3 15  1  0
 15 16  2  0
 15 17  1  0
 17 18  1  0
 18 19  1  0
 19 20  1  0
 20 21  2  0
 21 22  1  0
 22 23  1  0
 14 10  1  0
 23 19  2  0
  1 24  1  0
  1 25  1  0
  1 26  1  0
  2 27  1  0
  2 28  1  0
  4 29  1  0
  4 30  1  0
  5 31  1  0
  5 32  1  0
  6 33  1  0
  9 34  1  0
  9 35  1  0
 11 36  1  0
 12 37  1  0
 13 38  1  0
 17 39  1  0
 17 40  1  0
 18 41  1  0
 18 42  1  0
 20 43  1  0
 21 44  1  0
M  END
>  <Energy>  (380) 
978.56012646493912

>  <compound_id>  (380) 
17234

>  <target_id>  (380) 
1

>  <reference_id>  (380) 
59

>  <inspiration_ids>  (380) 
[96, 59]

>  <energy_score>  (380) 
943.1011423004944

>  <distance_score>  (380) 
6.831103530658803

>  <path>  (380) 
/opt/xchem-fragalysis-2/maxwin/BulkDock/SCRATCH/511014/C17234-P59/C17234-P59.minimised.mol

>  <scratch_subdir>  (380) 
/opt/xchem-fragalysis-2/maxwin/BulkDock/SCRATCH/511014/C17234-P59

>  <fragmenstein_runtime>  (380) 
20.093305110931396

>  <fragmenstein_outcome>  (380) 
too moved

>  <fragmenstein_mode>  (380) 
expansion

>  <fragmenstein_error>  (380) 


$$$$
C17235-P96
     RDKit          3D

 43 44  0  0  0  0  0  0  0  0999 V2000
   -7.2296  -14.2844   36.8483 C   0  0  0  0  0  0  0  0  0  0  0  0
   -6.9845  -13.9696   35.3344 C   0  0  0  0  0  0  0  0  0  0  0  0
   -6.2633  -13.0235   34.0742 C   0  0  0  0  0  0  0  0  0  0  0  0
   -6.8546  -13.1436   33.0292 O   0  0  0  0  0  0  0  0  0  0  0  0
   -4.9293  -11.9447   34.4439 N   0  0  0  0  0  0  0  0  0  0  0  0
   -4.2566  -10.7871   33.5616 C   0  0  0  0  0  0  0  0  0  0  0  0
   -3.8211   -8.7522   33.3858 C   0  0  0  0  0  0  0  0  0  0  0  0
   -4.7852   -7.1682   33.3416 C   0  0  0  0  0  0  0  0  0  0  0  0
   -5.1670   -6.6748   32.0615 O   0  0  0  0  0  0  0  0  0  0  0  0
   -2.4995   -7.9392   32.4823 N   0  0  0  0  0  0  0  0  0  0  0  0
   -2.7032   -6.9748   31.3139 C   0  0  0  0  0  0  0  0  0  0  0  0
   -2.4168   -5.4911   31.5190 C   0  0  0  0  0  0  0  0  0  0  0  0
   -1.9197   -4.6071   30.5196 C   0  0  0  0  0  0  0  0  0  0  0  0
   -1.8235   -3.3915   31.1383 C   0  0  0  0  0  0  0  0  0  0  0  0
   -2.2629   -3.5046   32.4124 O   0  0  0  0  0  0  0  0  0  0  0  0
   -2.6578   -4.8107   32.6523 N   0  0  0  0  0  0  0  0  0  0  0  0
   -8.0799  -14.6388   34.6899 C   0  0  0  0  0  0  0  0  0  0  0  0
   -9.4079  -14.6202   35.1266 C   0  0  0  0  0  0  0  0  0  0  0  0
  -10.1945  -15.1726   34.2434 N   0  0  0  0  0  0  0  0  0  0  0  0
   -9.2840  -15.6994   33.3499 N   0  0  0  0  0  0  0  0  0  0  0  0
   -9.4516  -17.0971   33.0094 C   0  0  0  0  0  0  0  0  0  0  0  0
   -8.0152  -15.2805   33.5094 C   0  0  0  0  0  0  0  0  0  0  0  0
   -6.5160  -13.9272   37.5584 H   0  0  0  0  0  0  0  0  0  0  0  0
   -8.1736  -13.8802   37.2391 H   0  0  0  0  0  0  0  0  0  0  0  0
   -7.2698  -15.3662   37.0050 H   0  0  0  0  0  0  0  0  0  0  0  0
   -7.5980  -13.0533   35.4761 H   0  0  0  0  0  0  0  0  0  0  0  0
   -4.5877  -12.1303   35.3756 H   0  0  0  0  0  0  0  0  0  0  0  0
   -3.5735  -11.4049   32.9506 H   0  0  0  0  0  0  0  0  0  0  0  0
   -4.0170  -10.6385   34.6471 H   0  0  0  0  0  0  0  0  0  0  0  0
   -3.3491   -8.6781   34.3152 H   0  0  0  0  0  0  0  0  0  0  0  0
   -5.7075   -7.0525   33.9210 H   0  0  0  0  0  0  0  0  0  0  0  0
   -4.1470   -6.4120   33.7973 H   0  0  0  0  0  0  0  0  0  0  0  0
   -6.0283   -6.2316   32.1956 H   0  0  0  0  0  0  0  0  0  0  0  0
   -2.2631   -7.2531   33.2182 H   0  0  0  0  0  0  0  0  0  0  0  0
   -3.5893   -7.0905   30.6858 H   0  0  0  0  0  0  0  0  0  0  0  0
   -1.9341   -7.2985   30.6054 H   0  0  0  0  0  0  0  0  0  0  0  0
   -1.6298   -4.8422   29.5068 H   0  0  0  0  0  0  0  0  0  0  0  0
   -1.4867   -2.4116   30.8375 H   0  0  0  0  0  0  0  0  0  0  0  0
   -9.8330  -14.2863   36.0572 H   0  0  0  0  0  0  0  0  0  0  0  0
   -9.5830  -17.6386   32.0956 H   0  0  0  0  0  0  0  0  0  0  0  0
  -10.3600  -17.4420   33.5344 H   0  0  0  0  0  0  0  0  0  0  0  0
   -8.4207  -17.4451   33.1489 H   0  0  0  0  0  0  0  0  0  0  0  0
   -7.1864  -15.5560   32.8686 H   0  0  0  0  0  0  0  0  0  0  0  0
  1  2  1  0
  2  3  1  0
  3  4  2  0
  3  5  1  0
  5  6  1  0
  6  7  1  0
  7  8  1  0
  8  9  1  0
  7 10  1  0
 10 11  1  0
 11 12  1  0
 12 13  1  0
 13 14  2  0
 14 15  1  0
 15 16  1  0
  2 17  1  0
 17 18  1  0
 18 19  2  0
 19 20  1  0
 20 21  1  0
 20 22  1  0
 16 12  2  0
 22 17  2  0
  1 23  1  0
  1 24  1  0
  1 25  1  0
  2 26  1  0
  5 27  1  0
  6 28  1  0
  6 29  1  0
  7 30  1  0
  8 31  1  0
  8 32  1  0
  9 33  1  0
 10 34  1  0
 11 35  1  0
 11 36  1  0
 13 37  1  0
 14 38  1  0
 18 39  1  0
 21 40  1  0
 21 41  1  0
 21 42  1  0
 22 43  1  0
M  END
>  <Energy>  (381) 
494.79731876544349

>  <compound_id>  (381) 
17235

>  <target_id>  (381) 
1

>  <reference_id>  (381) 
96

>  <inspiration_ids>  (381) 
[96, 59]

>  <energy_score>  (381) 
396.0620869085293

>  <distance_score>  (381) 
7.759236450134811

>  <path>  (381) 
/opt/xchem-fragalysis-2/maxwin/BulkDock/SCRATCH/511014/C17235-P96/C17235-P96.minimised.mol

>  <scratch_subdir>  (381) 
/opt/xchem-fragalysis-2/maxwin/BulkDock/SCRATCH/511014/C17235-P96

>  <fragmenstein_runtime>  (381) 
21.104796648025513

>  <fragmenstein_outcome>  (381) 
too moved

>  <fragmenstein_mode>  (381) 
expansion

>  <fragmenstein_error>  (381) 


$$$$
C17235-P59
     RDKit          3D

 43 44  0  0  0  0  0  0  0  0999 V2000
   -7.8723  -13.8709   28.3755 C   0  0  0  0  0  0  0  0  0  0  0  0
   -9.3500  -12.9236   28.9986 C   0  0  0  0  0  0  0  0  0  0  0  0
   -9.0320  -10.8936   30.4049 C   0  0  0  0  0  0  0  0  0  0  0  0
   -9.5765   -9.8414   30.1135 O   0  0  0  0  0  0  0  0  0  0  0  0
   -7.5966  -11.3443   31.8761 N   0  0  0  0  0  0  0  0  0  0  0  0
   -6.3767  -10.0563   33.2877 C   0  0  0  0  0  0  0  0  0  0  0  0
   -6.7186   -7.7071   33.3077 C   0  0  0  0  0  0  0  0  0  0  0  0
   -7.8234   -6.8223   34.1480 C   0  0  0  0  0  0  0  0  0  0  0  0
   -7.3934   -6.1369   35.2727 O   0  0  0  0  0  0  0  0  0  0  0  0
   -6.3365   -6.1589   32.0337 N   0  0  0  0  0  0  0  0  0  0  0  0
   -5.2870   -4.4523   32.5919 C   0  0  0  0  0  0  0  0  0  0  0  0
   -4.1162   -3.1384   32.0540 C   0  0  0  0  0  0  0  0  0  0  0  0
   -2.7615   -3.0628   31.5405 C   0  0  0  0  0  0  0  0  0  0  0  0
   -2.4202   -1.7363   31.5492 C   0  0  0  0  0  0  0  0  0  0  0  0
   -3.4127   -1.0349   32.1218 O   0  0  0  0  0  0  0  0  0  0  0  0
   -4.4205   -1.8859   32.5006 N   0  0  0  0  0  0  0  0  0  0  0  0
  -10.7421  -13.6624   27.9081 C   0  0  0  0  0  0  0  0  0  0  0  0
  -10.5962  -13.8694   26.4792 C   0  0  0  0  0  0  0  0  0  0  0  0
  -11.7569  -14.0809   25.8592 N   0  0  0  0  0  0  0  0  0  0  0  0
  -12.6483  -14.0257   26.8578 N   0  0  0  0  0  0  0  0  0  0  0  0
  -14.0606  -13.9378   26.5696 C   0  0  0  0  0  0  0  0  0  0  0  0
  -12.0776  -14.0136   28.1009 C   0  0  0  0  0  0  0  0  0  0  0  0
   -8.1440  -14.8441   27.9613 H   0  0  0  0  0  0  0  0  0  0  0  0
   -7.4263  -13.3558   27.5030 H   0  0  0  0  0  0  0  0  0  0  0  0
   -7.0622  -13.8877   29.1077 H   0  0  0  0  0  0  0  0  0  0  0  0
   -9.1618  -12.8805   27.8056 H   0  0  0  0  0  0  0  0  0  0  0  0
   -7.2713  -12.3024   31.8256 H   0  0  0  0  0  0  0  0  0  0  0  0
   -5.5683  -10.0802   32.6541 H   0  0  0  0  0  0  0  0  0  0  0  0
   -6.0449  -10.4775   34.2359 H   0  0  0  0  0  0  0  0  0  0  0  0
   -7.6075   -7.5704   32.7014 H   0  0  0  0  0  0  0  0  0  0  0  0
   -8.0185   -6.1618   33.3957 H   0  0  0  0  0  0  0  0  0  0  0  0
   -8.8363   -7.2137   34.1859 H   0  0  0  0  0  0  0  0  0  0  0  0
   -8.2119   -5.8627   35.7122 H   0  0  0  0  0  0  0  0  0  0  0  0
   -6.2477   -6.4817   31.0883 H   0  0  0  0  0  0  0  0  0  0  0  0
   -5.7726   -3.4172   32.3595 H   0  0  0  0  0  0  0  0  0  0  0  0
   -5.2335   -4.3204   33.6277 H   0  0  0  0  0  0  0  0  0  0  0  0
   -2.0721   -3.8294   31.2271 H   0  0  0  0  0  0  0  0  0  0  0  0
   -1.5486   -1.1730   31.2505 H   0  0  0  0  0  0  0  0  0  0  0  0
   -9.6980  -13.7762   25.8811 H   0  0  0  0  0  0  0  0  0  0  0  0
  -14.6075  -14.5581   27.2841 H   0  0  0  0  0  0  0  0  0  0  0  0
  -14.2479  -14.2846   25.5504 H   0  0  0  0  0  0  0  0  0  0  0  0
  -14.3588  -12.8912   26.6691 H   0  0  0  0  0  0  0  0  0  0  0  0
  -12.7156  -14.1067   28.9598 H   0  0  0  0  0  0  0  0  0  0  0  0
  1  2  1  0
  2  3  1  0
  3  4  2  0
  3  5  1  0
  5  6  1  0
  6  7  1  0
  7  8  1  0
  8  9  1  0
  7 10  1  0
 10 11  1  0
 11 12  1  0
 12 13  1  0
 13 14  2  0
 14 15  1  0
 15 16  1  0
  2 17  1  0
 17 18  1  0
 18 19  2  0
 19 20  1  0
 20 21  1  0
 20 22  1  0
 16 12  2  0
 22 17  2  0
  1 23  1  0
  1 24  1  0
  1 25  1  0
  2 26  1  0
  5 27  1  0
  6 28  1  0
  6 29  1  0
  7 30  1  0
  8 31  1  0
  8 32  1  0
  9 33  1  0
 10 34  1  0
 11 35  1  0
 11 36  1  0
 13 37  1  0
 14 38  1  0
 18 39  1  0
 21 40  1  0
 21 41  1  0
 21 42  1  0
 22 43  1  0
M  END
>  <Energy>  (382) 
1706.8993189786472

>  <compound_id>  (382) 
17235

>  <target_id>  (382) 
1

>  <reference_id>  (382) 
59

>  <inspiration_ids>  (382) 
[96, 59]

>  <energy_score>  (382) 
1608.164087121764

>  <distance_score>  (382) 
7.450414654364254

>  <path>  (382) 
/opt/xchem-fragalysis-2/maxwin/BulkDock/SCRATCH/511014/C17235-P59/C17235-P59.minimised.mol

>  <scratch_subdir>  (382) 
/opt/xchem-fragalysis-2/maxwin/BulkDock/SCRATCH/511014/C17235-P59

>  <fragmenstein_runtime>  (382) 
16.44816303253174

>  <fragmenstein_outcome>  (382) 
too moved

>  <fragmenstein_mode>  (382) 
expansion

>  <fragmenstein_error>  (382) 


$$$$
C17243-P96
     RDKit          3D

 37 39  0  0  0  0  0  0  0  0999 V2000
   -4.5694   -1.8230   38.6463 O   0  0  0  0  0  0  0  0  0  0  0  0
   -3.7340   -2.4253   37.9613 C   0  0  0  0  0  0  0  0  0  0  0  0
   -3.5958   -2.3196   36.0253 C   0  0  0  0  0  0  0  0  0  0  0  0
   -2.9776   -3.0309   34.2319 C   0  0  0  0  0  0  0  0  0  0  0  0
   -2.7668   -2.3246   32.8904 C   0  0  0  0  0  0  0  0  0  0  0  0
   -2.2587   -3.2351   32.0099 C   0  0  0  0  0  0  0  0  0  0  0  0
   -2.3455   -4.4403   32.5770 O   0  0  0  0  0  0  0  0  0  0  0  0
   -2.8564   -4.3465   33.8329 N   0  0  0  0  0  0  0  0  0  0  0  0
   -2.8641   -3.3431   38.5885 O   0  0  0  0  0  0  0  0  0  0  0  0
   -3.1479   -3.7268   39.9784 C   0  0  0  0  0  0  0  0  0  0  0  0
   -4.2985   -4.7095   40.2759 C   0  0  0  0  0  0  0  0  0  0  0  0
   -5.6215   -4.3354   40.6202 C   0  0  0  0  0  0  0  0  0  0  0  0
   -6.2460   -5.4928   41.0337 C   0  0  0  0  0  0  0  0  0  0  0  0
   -5.3934   -6.5318   40.7585 N   0  0  0  0  0  0  0  0  0  0  0  0
   -5.7055   -7.9732   40.7219 C   0  0  0  0  0  0  0  0  0  0  0  0
   -7.2057   -8.3815   40.6669 C   0  0  0  0  0  0  0  0  0  0  0  0
   -7.3471   -9.7803   41.2912 C   0  0  0  0  0  0  0  0  0  0  0  0
   -5.9934  -10.1158   41.8952 C   0  0  0  0  0  0  0  0  0  0  0  0
   -5.2046   -8.8004   41.9104 C   0  0  0  0  0  0  0  0  0  0  0  0
   -4.1372   -6.0480   40.4678 N   0  0  0  0  0  0  0  0  0  0  0  0
   -3.9929   -1.2433   36.3223 H   0  0  0  0  0  0  0  0  0  0  0  0
   -4.0834   -1.5416   35.2926 H   0  0  0  0  0  0  0  0  0  0  0  0
   -2.8858   -1.2670   32.6772 H   0  0  0  0  0  0  0  0  0  0  0  0
   -1.8876   -3.2024   30.9963 H   0  0  0  0  0  0  0  0  0  0  0  0
   -2.2205   -4.1828   40.3450 H   0  0  0  0  0  0  0  0  0  0  0  0
   -3.2869   -2.8118   40.5676 H   0  0  0  0  0  0  0  0  0  0  0  0
   -6.0307   -3.3340   40.6338 H   0  0  0  0  0  0  0  0  0  0  0  0
   -7.2389   -5.6474   41.4257 H   0  0  0  0  0  0  0  0  0  0  0  0
   -5.2051   -8.3118   39.8160 H   0  0  0  0  0  0  0  0  0  0  0  0
   -7.8268   -7.6976   41.2545 H   0  0  0  0  0  0  0  0  0  0  0  0
   -7.6019   -8.3516   39.6481 H   0  0  0  0  0  0  0  0  0  0  0  0
   -8.1133   -9.7519   42.0754 H   0  0  0  0  0  0  0  0  0  0  0  0
   -7.6752  -10.5367   40.5726 H   0  0  0  0  0  0  0  0  0  0  0  0
   -6.0974  -10.5186   42.9085 H   0  0  0  0  0  0  0  0  0  0  0  0
   -5.4792  -10.8833   41.3142 H   0  0  0  0  0  0  0  0  0  0  0  0
   -5.4030   -8.2662   42.8484 H   0  0  0  0  0  0  0  0  0  0  0  0
   -4.1251   -8.9768   41.8613 H   0  0  0  0  0  0  0  0  0  0  0  0
  1  2  2  0
  2  3  1  0
  3  4  1  0
  4  5  1  0
  5  6  2  0
  6  7  1  0
  7  8  1  0
  2  9  1  0
  9 10  1  0
 10 11  1  0
 11 12  1  0
 12 13  2  0
 13 14  1  0
 14 15  1  0
 15 16  1  0
 16 17  1  0
 17 18  1  0
 18 19  1  0
 14 20  1  0
  8  4  2  0
 20 11  2  0
 19 15  1  0
  3 21  1  0
  3 22  1  0
  5 23  1  0
  6 24  1  0
 10 25  1  0
 10 26  1  0
 12 27  1  0
 13 28  1  0
 15 29  1  0
 16 30  1  0
 16 31  1  0
 17 32  1  0
 17 33  1  0
 18 34  1  0
 18 35  1  0
 19 36  1  0
 19 37  1  0
M  END
>  <Energy>  (383) 
297.35775263995259

>  <compound_id>  (383) 
17243

>  <target_id>  (383) 
1

>  <reference_id>  (383) 
96

>  <inspiration_ids>  (383) 
[96, 59]

>  <energy_score>  (383) 
236.096214253577

>  <distance_score>  (383) 
11.767321473806762

>  <path>  (383) 
/opt/xchem-fragalysis-2/maxwin/BulkDock/SCRATCH/511014/C17243-P96/C17243-P96.minimised.mol

>  <scratch_subdir>  (383) 
/opt/xchem-fragalysis-2/maxwin/BulkDock/SCRATCH/511014/C17243-P96

>  <fragmenstein_runtime>  (383) 
17.508355379104614

>  <fragmenstein_outcome>  (383) 
too moved

>  <fragmenstein_mode>  (383) 
expansion

>  <fragmenstein_error>  (383) 


$$$$
C17243-P59
     RDKit          3D

 37 39  0  0  0  0  0  0  0  0999 V2000
   -6.1506   -5.6471   29.2429 O   0  0  0  0  0  0  0  0  0  0  0  0
   -5.9774   -5.5933   30.4923 C   0  0  0  0  0  0  0  0  0  0  0  0
   -4.9848   -3.8480   31.2986 C   0  0  0  0  0  0  0  0  0  0  0  0
   -3.5294   -2.9894   31.3312 C   0  0  0  0  0  0  0  0  0  0  0  0
   -2.4884   -2.6801   30.3966 C   0  0  0  0  0  0  0  0  0  0  0  0
   -1.6625   -1.8014   31.0446 C   0  0  0  0  0  0  0  0  0  0  0  0
   -2.1553   -1.5600   32.2755 O   0  0  0  0  0  0  0  0  0  0  0  0
   -3.3215   -2.2695   32.4513 N   0  0  0  0  0  0  0  0  0  0  0  0
   -6.4942   -7.2315   31.4245 O   0  0  0  0  0  0  0  0  0  0  0  0
   -6.5429   -9.2509   30.7014 C   0  0  0  0  0  0  0  0  0  0  0  0
   -7.9620  -10.8760   31.2852 C   0  0  0  0  0  0  0  0  0  0  0  0
   -6.9969  -12.0917   32.0717 C   0  0  0  0  0  0  0  0  0  0  0  0
   -7.2729  -13.4734   31.9242 C   0  0  0  0  0  0  0  0  0  0  0  0
   -8.6293  -13.4594   32.9701 N   0  0  0  0  0  0  0  0  0  0  0  0
   -9.7868  -14.8929   33.4037 C   0  0  0  0  0  0  0  0  0  0  0  0
   -9.4278  -16.5579   34.2133 C   0  0  0  0  0  0  0  0  0  0  0  0
  -10.4679  -17.5232   34.6977 C   0  0  0  0  0  0  0  0  0  0  0  0
  -11.6819  -16.7041   34.8212 C   0  0  0  0  0  0  0  0  0  0  0  0
  -11.3933  -15.3375   34.0513 C   0  0  0  0  0  0  0  0  0  0  0  0
   -8.5682  -11.6490   32.7090 N   0  0  0  0  0  0  0  0  0  0  0  0
   -5.5988   -3.0038   30.9371 H   0  0  0  0  0  0  0  0  0  0  0  0
   -5.0920   -3.8429   32.4070 H   0  0  0  0  0  0  0  0  0  0  0  0
   -2.3570   -2.9837   29.3698 H   0  0  0  0  0  0  0  0  0  0  0  0
   -0.7607   -1.2698   30.7795 H   0  0  0  0  0  0  0  0  0  0  0  0
   -5.6494   -9.8450   31.5838 H   0  0  0  0  0  0  0  0  0  0  0  0
   -5.5343   -8.7908   31.1698 H   0  0  0  0  0  0  0  0  0  0  0  0
   -6.4037  -11.6824   32.8861 H   0  0  0  0  0  0  0  0  0  0  0  0
   -7.4894  -14.2349   31.1790 H   0  0  0  0  0  0  0  0  0  0  0  0
  -10.1104  -14.9649   32.4066 H   0  0  0  0  0  0  0  0  0  0  0  0
   -8.8833  -16.3859   35.1468 H   0  0  0  0  0  0  0  0  0  0  0  0
   -8.7606  -17.1656   33.6170 H   0  0  0  0  0  0  0  0  0  0  0  0
  -10.5409  -18.3454   33.9984 H   0  0  0  0  0  0  0  0  0  0  0  0
  -10.1906  -17.9829   35.6542 H   0  0  0  0  0  0  0  0  0  0  0  0
  -12.5964  -17.2032   34.4763 H   0  0  0  0  0  0  0  0  0  0  0  0
  -11.8907  -16.5336   35.8881 H   0  0  0  0  0  0  0  0  0  0  0  0
  -12.1809  -15.1358   33.3062 H   0  0  0  0  0  0  0  0  0  0  0  0
  -11.6398  -14.8855   34.9621 H   0  0  0  0  0  0  0  0  0  0  0  0
  1  2  2  0
  2  3  1  0
  3  4  1  0
  4  5  1  0
  5  6  2  0
  6  7  1  0
  7  8  1  0
  2  9  1  0
  9 10  1  0
 10 11  1  0
 11 12  1  0
 12 13  2  0
 13 14  1  0
 14 15  1  0
 15 16  1  0
 16 17  1  0
 17 18  1  0
 18 19  1  0
 14 20  1  0
  8  4  2  0
 20 11  2  0
 19 15  1  0
  3 21  1  0
  3 22  1  0
  5 23  1  0
  6 24  1  0
 10 25  1  0
 10 26  1  0
 12 27  1  0
 13 28  1  0
 15 29  1  0
 16 30  1  0
 16 31  1  0
 17 32  1  0
 17 33  1  0
 18 34  1  0
 18 35  1  0
 19 36  1  0
 19 37  1  0
M  END
>  <Energy>  (384) 
1302.1615077858933

>  <compound_id>  (384) 
17243

>  <target_id>  (384) 
1

>  <reference_id>  (384) 
59

>  <inspiration_ids>  (384) 
[96, 59]

>  <energy_score>  (384) 
1240.899969399512

>  <distance_score>  (384) 
7.326311053800141

>  <path>  (384) 
/opt/xchem-fragalysis-2/maxwin/BulkDock/SCRATCH/511014/C17243-P59/C17243-P59.minimised.mol

>  <scratch_subdir>  (384) 
/opt/xchem-fragalysis-2/maxwin/BulkDock/SCRATCH/511014/C17243-P59

>  <fragmenstein_runtime>  (384) 
19.86564016342163

>  <fragmenstein_outcome>  (384) 
too moved

>  <fragmenstein_mode>  (384) 
expansion

>  <fragmenstein_error>  (384) 


$$$$
C17250-P96
     RDKit          3D

 42 44  0  0  0  0  0  0  0  0999 V2000
   -5.5175   -6.9007   32.9818 C   0  0  0  0  0  0  0  0  0  0  0  0
   -5.3456   -5.5905   33.5433 C   0  0  0  0  0  0  0  0  0  0  0  0
   -6.7257   -4.7080   34.1617 N   0  0  0  0  0  0  0  0  0  0  0  0
   -8.6147   -4.3987   33.8445 C   0  0  0  0  0  0  0  0  0  0  0  0
   -9.6888   -4.4896   35.6695 C   0  0  0  0  0  0  0  0  0  0  0  0
  -10.9090   -5.7095   36.5870 C   0  0  0  0  0  0  0  0  0  0  0  0
  -10.7861   -6.9405   37.3679 C   0  0  0  0  0  0  0  0  0  0  0  0
  -11.9581   -7.6509   37.3301 C   0  0  0  0  0  0  0  0  0  0  0  0
  -12.7068   -6.9866   36.4294 N   0  0  0  0  0  0  0  0  0  0  0  0
  -13.7832   -7.5637   35.6159 C   0  0  0  0  0  0  0  0  0  0  0  0
  -14.7047   -8.5794   36.3198 C   0  0  0  0  0  0  0  0  0  0  0  0
  -15.2806   -9.4753   35.2223 C   0  0  0  0  0  0  0  0  0  0  0  0
  -14.3450   -9.3691   34.0289 C   0  0  0  0  0  0  0  0  0  0  0  0
  -13.2690   -8.3483   34.3996 C   0  0  0  0  0  0  0  0  0  0  0  0
  -12.2712   -5.6831   36.3078 N   0  0  0  0  0  0  0  0  0  0  0  0
   -3.9590   -5.0550   32.7096 C   0  0  0  0  0  0  0  0  0  0  0  0
   -3.2574   -5.6521   31.6014 C   0  0  0  0  0  0  0  0  0  0  0  0
   -2.2579   -4.7700   31.2796 C   0  0  0  0  0  0  0  0  0  0  0  0
   -2.2492   -3.7699   32.1827 O   0  0  0  0  0  0  0  0  0  0  0  0
   -3.2601   -3.9682   33.0892 N   0  0  0  0  0  0  0  0  0  0  0  0
   -5.7229   -6.9038   31.9118 H   0  0  0  0  0  0  0  0  0  0  0  0
   -6.3262   -7.2707   33.6071 H   0  0  0  0  0  0  0  0  0  0  0  0
   -4.5944   -7.4536   33.1604 H   0  0  0  0  0  0  0  0  0  0  0  0
   -4.9226   -5.8958   34.5029 H   0  0  0  0  0  0  0  0  0  0  0  0
   -6.4738   -4.0906   34.8894 H   0  0  0  0  0  0  0  0  0  0  0  0
   -8.5865   -3.4223   33.3242 H   0  0  0  0  0  0  0  0  0  0  0  0
   -8.9224   -4.5627   32.7845 H   0  0  0  0  0  0  0  0  0  0  0  0
   -8.9412   -4.6441   36.4173 H   0  0  0  0  0  0  0  0  0  0  0  0
   -9.9438   -3.5616   36.2067 H   0  0  0  0  0  0  0  0  0  0  0  0
   -9.9608   -7.4281   37.8618 H   0  0  0  0  0  0  0  0  0  0  0  0
  -12.2028   -8.6282   37.7149 H   0  0  0  0  0  0  0  0  0  0  0  0
  -14.3920   -6.7181   35.2698 H   0  0  0  0  0  0  0  0  0  0  0  0
  -14.1880   -9.1884   37.0642 H   0  0  0  0  0  0  0  0  0  0  0  0
  -15.5044   -8.0629   36.8632 H   0  0  0  0  0  0  0  0  0  0  0  0
  -15.3958  -10.5083   35.5661 H   0  0  0  0  0  0  0  0  0  0  0  0
  -16.2786   -9.1198   34.9398 H   0  0  0  0  0  0  0  0  0  0  0  0
  -13.9272  -10.3429   33.7708 H   0  0  0  0  0  0  0  0  0  0  0  0
  -14.9024   -9.0242   33.1502 H   0  0  0  0  0  0  0  0  0  0  0  0
  -13.0686   -7.6795   33.5565 H   0  0  0  0  0  0  0  0  0  0  0  0
  -12.3274   -8.8343   34.6394 H   0  0  0  0  0  0  0  0  0  0  0  0
   -3.5083   -6.5464   31.0558 H   0  0  0  0  0  0  0  0  0  0  0  0
   -1.5057   -4.7121   30.5056 H   0  0  0  0  0  0  0  0  0  0  0  0
  1  2  1  0
  2  3  1  0
  3  4  1  0
  4  5  1  0
  5  6  1  0
  6  7  1  0
  7  8  2  0
  8  9  1  0
  9 10  1  0
 10 11  1  0
 11 12  1  0
 12 13  1  0
 13 14  1  0
  9 15  1  0
  2 16  1  0
 16 17  1  0
 17 18  2  0
 18 19  1  0
 19 20  1  0
 15  6  2  0
 20 16  2  0
 14 10  1  0
  1 21  1  0
  1 22  1  0
  1 23  1  0
  2 24  1  0
  3 25  1  0
  4 26  1  0
  4 27  1  0
  5 28  1  0
  5 29  1  0
  7 30  1  0
  8 31  1  0
 10 32  1  0
 11 33  1  0
 11 34  1  0
 12 35  1  0
 12 36  1  0
 13 37  1  0
 13 38  1  0
 14 39  1  0
 14 40  1  0
 17 41  1  0
 18 42  1  0
M  END
>  <Energy>  (385) 
415.13523580702582

>  <compound_id>  (385) 
17250

>  <target_id>  (385) 
1

>  <reference_id>  (385) 
96

>  <inspiration_ids>  (385) 
[96, 59]

>  <energy_score>  (385) 
337.68730325587785

>  <distance_score>  (385) 
10.821927514168072

>  <path>  (385) 
/opt/xchem-fragalysis-2/maxwin/BulkDock/SCRATCH/511014/C17250-P96/C17250-P96.minimised.mol

>  <scratch_subdir>  (385) 
/opt/xchem-fragalysis-2/maxwin/BulkDock/SCRATCH/511014/C17250-P96

>  <fragmenstein_runtime>  (385) 
18.670500993728638

>  <fragmenstein_outcome>  (385) 
too moved

>  <fragmenstein_mode>  (385) 
expansion

>  <fragmenstein_error>  (385) 


$$$$
C17250-P59
     RDKit          3D

 42 44  0  0  0  0  0  0  0  0999 V2000
   -7.8626   -2.1440   36.4279 C   0  0  0  0  0  0  0  0  0  0  0  0
   -7.1738   -2.9830   35.2895 C   0  0  0  0  0  0  0  0  0  0  0  0
   -7.1447   -4.9511   35.3372 N   0  0  0  0  0  0  0  0  0  0  0  0
   -8.0099   -6.5129   34.6058 C   0  0  0  0  0  0  0  0  0  0  0  0
   -9.3031   -7.5414   33.4799 C   0  0  0  0  0  0  0  0  0  0  0  0
  -10.0169   -9.4181   33.2375 C   0  0  0  0  0  0  0  0  0  0  0  0
  -10.3047  -10.1630   34.7959 C   0  0  0  0  0  0  0  0  0  0  0  0
   -8.8616  -11.3274   34.7212 C   0  0  0  0  0  0  0  0  0  0  0  0
   -8.9154  -12.3275   33.1633 N   0  0  0  0  0  0  0  0  0  0  0  0
   -9.7205  -14.1074   33.1965 C   0  0  0  0  0  0  0  0  0  0  0  0
  -11.3854  -14.9104   33.1868 C   0  0  0  0  0  0  0  0  0  0  0  0
  -12.1908  -15.9117   34.2728 C   0  0  0  0  0  0  0  0  0  0  0  0
  -11.0038  -16.6730   34.7767 C   0  0  0  0  0  0  0  0  0  0  0  0
   -9.7238  -15.8639   34.1317 C   0  0  0  0  0  0  0  0  0  0  0  0
   -9.2887  -10.7312   32.2842 N   0  0  0  0  0  0  0  0  0  0  0  0
   -5.7211   -2.2202   34.9702 C   0  0  0  0  0  0  0  0  0  0  0  0
   -4.6522   -1.8507   35.8278 C   0  0  0  0  0  0  0  0  0  0  0  0
   -3.7493   -1.2136   35.0137 C   0  0  0  0  0  0  0  0  0  0  0  0
   -4.2559   -1.1183   33.7654 O   0  0  0  0  0  0  0  0  0  0  0  0
   -5.5098   -1.6926   33.7428 N   0  0  0  0  0  0  0  0  0  0  0  0
   -8.9344   -2.3597   36.4884 H   0  0  0  0  0  0  0  0  0  0  0  0
   -7.7962   -1.0755   36.1788 H   0  0  0  0  0  0  0  0  0  0  0  0
   -7.3980   -2.2327   37.4135 H   0  0  0  0  0  0  0  0  0  0  0  0
   -7.7768   -2.5171   34.4795 H   0  0  0  0  0  0  0  0  0  0  0  0
   -7.8986   -4.9600   36.0277 H   0  0  0  0  0  0  0  0  0  0  0  0
   -8.8944   -6.0709   35.0350 H   0  0  0  0  0  0  0  0  0  0  0  0
   -7.4055   -6.4009   33.7234 H   0  0  0  0  0  0  0  0  0  0  0  0
  -10.2512   -7.0540   33.7224 H   0  0  0  0  0  0  0  0  0  0  0  0
   -9.0409   -7.1599   32.5318 H   0  0  0  0  0  0  0  0  0  0  0  0
   -9.5452   -9.5590   34.5075 H   0  0  0  0  0  0  0  0  0  0  0  0
   -7.7874  -11.1933   34.8255 H   0  0  0  0  0  0  0  0  0  0  0  0
   -9.0333  -14.4067   32.4320 H   0  0  0  0  0  0  0  0  0  0  0  0
  -11.1635  -14.6889   34.1892 H   0  0  0  0  0  0  0  0  0  0  0  0
  -12.2630  -14.4762   32.6995 H   0  0  0  0  0  0  0  0  0  0  0  0
  -13.0039  -16.5208   33.8498 H   0  0  0  0  0  0  0  0  0  0  0  0
  -12.7480  -15.3844   35.0345 H   0  0  0  0  0  0  0  0  0  0  0  0
  -11.0343  -16.7636   35.8654 H   0  0  0  0  0  0  0  0  0  0  0  0
  -10.9580  -17.7234   34.4667 H   0  0  0  0  0  0  0  0  0  0  0  0
   -9.0113  -16.1176   34.9298 H   0  0  0  0  0  0  0  0  0  0  0  0
   -9.4784  -16.5152   33.3136 H   0  0  0  0  0  0  0  0  0  0  0  0
   -4.5320   -2.0338   36.8834 H   0  0  0  0  0  0  0  0  0  0  0  0
   -2.7717   -0.7804   35.1615 H   0  0  0  0  0  0  0  0  0  0  0  0
  1  2  1  0
  2  3  1  0
  3  4  1  0
  4  5  1  0
  5  6  1  0
  6  7  1  0
  7  8  2  0
  8  9  1  0
  9 10  1  0
 10 11  1  0
 11 12  1  0
 12 13  1  0
 13 14  1  0
  9 15  1  0
  2 16  1  0
 16 17  1  0
 17 18  2  0
 18 19  1  0
 19 20  1  0
 15  6  2  0
 20 16  2  0
 14 10  1  0
  1 21  1  0
  1 22  1  0
  1 23  1  0
  2 24  1  0
  3 25  1  0
  4 26  1  0
  4 27  1  0
  5 28  1  0
  5 29  1  0
  7 30  1  0
  8 31  1  0
 10 32  1  0
 11 33  1  0
 11 34  1  0
 12 35  1  0
 12 36  1  0
 13 37  1  0
 13 38  1  0
 14 39  1  0
 14 40  1  0
 17 41  1  0
 18 42  1  0
M  END
>  <Energy>  (386) 
1253.0029679430058

>  <compound_id>  (386) 
17250

>  <target_id>  (386) 
1

>  <reference_id>  (386) 
59

>  <inspiration_ids>  (386) 
[96, 59]

>  <energy_score>  (386) 
1175.5550353918534

>  <distance_score>  (386) 
8.0411510632189

>  <path>  (386) 
/opt/xchem-fragalysis-2/maxwin/BulkDock/SCRATCH/511014/C17250-P59/C17250-P59.minimised.mol

>  <scratch_subdir>  (386) 
/opt/xchem-fragalysis-2/maxwin/BulkDock/SCRATCH/511014/C17250-P59

>  <fragmenstein_runtime>  (386) 
27.87404203414917

>  <fragmenstein_outcome>  (386) 
too moved

>  <fragmenstein_mode>  (386) 
expansion

>  <fragmenstein_error>  (386) 


$$$$
C17252-P96
     RDKit          3D

 37 39  0  0  0  0  0  0  0  0999 V2000
   -7.6533   -8.1819   33.4141 O   0  0  0  0  0  0  0  0  0  0  0  0
   -7.1549   -7.9402   34.4100 C   0  0  0  0  0  0  0  0  0  0  0  0
   -6.3255   -6.7313   34.7764 N   0  0  0  0  0  0  0  0  0  0  0  0
   -5.8400   -5.6491   33.9679 C   0  0  0  0  0  0  0  0  0  0  0  0
   -4.3434   -5.6614   32.9698 C   0  0  0  0  0  0  0  0  0  0  0  0
   -4.0587   -6.2681   31.7146 C   0  0  0  0  0  0  0  0  0  0  0  0
   -2.8327   -5.7868   31.3299 C   0  0  0  0  0  0  0  0  0  0  0  0
   -2.4158   -4.8835   32.2404 O   0  0  0  0  0  0  0  0  0  0  0  0
   -3.3604   -4.7714   33.2289 N   0  0  0  0  0  0  0  0  0  0  0  0
   -6.9800   -8.7614   35.5866 N   0  0  0  0  0  0  0  0  0  0  0  0
   -7.2662  -10.5354   35.8251 C   0  0  0  0  0  0  0  0  0  0  0  0
   -5.3910  -11.4872   34.9870 C   0  0  0  0  0  0  0  0  0  0  0  0
   -5.8995  -12.7424   34.1859 N   0  0  0  0  0  0  0  0  0  0  0  0
   -7.1122  -13.1687   34.6064 N   0  0  0  0  0  0  0  0  0  0  0  0
   -7.1391  -14.5936   34.6264 C   0  0  0  0  0  0  0  0  0  0  0  0
   -7.4000  -15.4198   35.8279 C   0  0  0  0  0  0  0  0  0  0  0  0
   -6.5985  -16.7153   35.3387 C   0  0  0  0  0  0  0  0  0  0  0  0
   -6.8714  -16.7999   33.8241 C   0  0  0  0  0  0  0  0  0  0  0  0
   -7.4437  -15.4240   33.4192 C   0  0  0  0  0  0  0  0  0  0  0  0
   -7.8857  -12.2454   35.3830 C   0  0  0  0  0  0  0  0  0  0  0  0
   -5.9609   -6.8509   35.6919 H   0  0  0  0  0  0  0  0  0  0  0  0
   -5.8714   -6.4371   33.1982 H   0  0  0  0  0  0  0  0  0  0  0  0
   -5.0501   -5.6880   34.6866 H   0  0  0  0  0  0  0  0  0  0  0  0
   -4.7411   -6.8404   31.1067 H   0  0  0  0  0  0  0  0  0  0  0  0
   -2.1940   -5.9101   30.4685 H   0  0  0  0  0  0  0  0  0  0  0  0
   -6.4210   -8.2627   36.2623 H   0  0  0  0  0  0  0  0  0  0  0  0
   -4.3657  -11.1189   34.7931 H   0  0  0  0  0  0  0  0  0  0  0  0
   -6.1085  -14.8070   34.6556 H   0  0  0  0  0  0  0  0  0  0  0  0
   -8.4833  -15.3817   35.9114 H   0  0  0  0  0  0  0  0  0  0  0  0
   -7.0821  -15.0303   36.7936 H   0  0  0  0  0  0  0  0  0  0  0  0
   -5.5297  -16.5858   35.4460 H   0  0  0  0  0  0  0  0  0  0  0  0
   -6.6918  -17.6468   35.8914 H   0  0  0  0  0  0  0  0  0  0  0  0
   -7.5599  -17.5665   33.5223 H   0  0  0  0  0  0  0  0  0  0  0  0
   -5.9741  -17.1202   33.3055 H   0  0  0  0  0  0  0  0  0  0  0  0
   -6.9603  -15.0407   32.5191 H   0  0  0  0  0  0  0  0  0  0  0  0
   -8.5268  -15.4318   33.3011 H   0  0  0  0  0  0  0  0  0  0  0  0
   -8.3551  -12.8661   36.1450 H   0  0  0  0  0  0  0  0  0  0  0  0
  1  2  2  0
  2  3  1  0
  3  4  1  0
  4  5  1  0
  5  6  1  0
  6  7  2  0
  7  8  1  0
  8  9  1  0
  2 10  1  0
 10 11  1  0
 11 12  1  0
 12 13  2  0
 13 14  1  0
 14 15  1  0
 15 16  1  0
 16 17  1  0
 17 18  1  0
 18 19  1  0
 14 20  1  0
  9  5  2  0
 20 11  2  0
 19 15  1  0
  3 21  1  0
  4 22  1  0
  4 23  1  0
  6 24  1  0
  7 25  1  0
 10 26  1  0
 12 27  1  0
 15 28  1  0
 16 29  1  0
 16 30  1  0
 17 31  1  0
 17 32  1  0
 18 33  1  0
 18 34  1  0
 19 35  1  0
 19 36  1  0
 20 37  1  0
M  END
>  <Energy>  (387) 
594.48078162725767

>  <compound_id>  (387) 
17252

>  <target_id>  (387) 
1

>  <reference_id>  (387) 
96

>  <inspiration_ids>  (387) 
[96, 59]

>  <energy_score>  (387) 
587.5804464636392

>  <distance_score>  (387) 
7.86339297273043

>  <path>  (387) 
/opt/xchem-fragalysis-2/maxwin/BulkDock/SCRATCH/511014/C17252-P96/C17252-P96.minimised.mol

>  <scratch_subdir>  (387) 
/opt/xchem-fragalysis-2/maxwin/BulkDock/SCRATCH/511014/C17252-P96

>  <fragmenstein_runtime>  (387) 
23.864888429641724

>  <fragmenstein_outcome>  (387) 
too moved

>  <fragmenstein_mode>  (387) 
expansion

>  <fragmenstein_error>  (387) 


$$$$
C17252-P59
     RDKit          3D

 37 39  0  0  0  0  0  0  0  0999 V2000
   -7.2419   -6.1974   35.1353 O   0  0  0  0  0  0  0  0  0  0  0  0
   -6.4652   -6.3050   34.2214 C   0  0  0  0  0  0  0  0  0  0  0  0
   -5.5009   -4.8247   33.1954 N   0  0  0  0  0  0  0  0  0  0  0  0
   -5.3751   -2.8687   33.4449 C   0  0  0  0  0  0  0  0  0  0  0  0
   -4.0146   -2.2587   33.0708 C   0  0  0  0  0  0  0  0  0  0  0  0
   -3.2128   -2.3427   31.9105 C   0  0  0  0  0  0  0  0  0  0  0  0
   -2.1873   -1.4553   32.1049 C   0  0  0  0  0  0  0  0  0  0  0  0
   -2.3588   -0.8399   33.2933 O   0  0  0  0  0  0  0  0  0  0  0  0
   -3.5096   -1.3139   33.8886 N   0  0  0  0  0  0  0  0  0  0  0  0
   -5.6507   -8.0607   33.4859 N   0  0  0  0  0  0  0  0  0  0  0  0
   -5.9602   -9.9740   33.9119 C   0  0  0  0  0  0  0  0  0  0  0  0
   -7.2315  -11.2885   33.4006 C   0  0  0  0  0  0  0  0  0  0  0  0
   -7.7033  -12.4697   33.4272 N   0  0  0  0  0  0  0  0  0  0  0  0
   -6.8387  -12.7249   32.5180 N   0  0  0  0  0  0  0  0  0  0  0  0
   -7.3434  -14.0114   31.6542 C   0  0  0  0  0  0  0  0  0  0  0  0
   -6.6947  -15.4121   31.4253 C   0  0  0  0  0  0  0  0  0  0  0  0
   -7.6184  -16.5376   32.0291 C   0  0  0  0  0  0  0  0  0  0  0  0
   -9.2555  -15.9595   32.8752 C   0  0  0  0  0  0  0  0  0  0  0  0
   -8.9147  -14.4421   32.5807 C   0  0  0  0  0  0  0  0  0  0  0  0
   -5.8946  -11.2319   32.7813 C   0  0  0  0  0  0  0  0  0  0  0  0
   -5.0052   -5.1602   32.4546 H   0  0  0  0  0  0  0  0  0  0  0  0
   -6.0646   -2.3519   32.7473 H   0  0  0  0  0  0  0  0  0  0  0  0
   -5.5019   -2.6591   34.5325 H   0  0  0  0  0  0  0  0  0  0  0  0
   -3.3483   -2.9136   31.0209 H   0  0  0  0  0  0  0  0  0  0  0  0
   -1.3282   -1.1438   31.5289 H   0  0  0  0  0  0  0  0  0  0  0  0
   -5.0798   -7.8967   32.6335 H   0  0  0  0  0  0  0  0  0  0  0  0
   -7.9753  -11.1339   32.5054 H   0  0  0  0  0  0  0  0  0  0  0  0
   -7.3938  -13.7368   30.6283 H   0  0  0  0  0  0  0  0  0  0  0  0
   -5.6436  -15.4698   31.6933 H   0  0  0  0  0  0  0  0  0  0  0  0
   -6.6561  -15.5836   30.3390 H   0  0  0  0  0  0  0  0  0  0  0  0
   -7.1686  -17.2663   32.6766 H   0  0  0  0  0  0  0  0  0  0  0  0
   -7.6161  -17.2943   31.2329 H   0  0  0  0  0  0  0  0  0  0  0  0
   -9.4531  -16.4392   33.8667 H   0  0  0  0  0  0  0  0  0  0  0  0
  -10.2510  -15.7849   32.5438 H   0  0  0  0  0  0  0  0  0  0  0  0
   -9.3331  -13.7764   33.2942 H   0  0  0  0  0  0  0  0  0  0  0  0
   -9.6895  -14.2230   31.8904 H   0  0  0  0  0  0  0  0  0  0  0  0
   -5.6221  -10.9051   31.7833 H   0  0  0  0  0  0  0  0  0  0  0  0
  1  2  2  0
  2  3  1  0
  3  4  1  0
  4  5  1  0
  5  6  1  0
  6  7  2  0
  7  8  1  0
  8  9  1  0
  2 10  1  0
 10 11  1  0
 11 12  1  0
 12 13  2  0
 13 14  1  0
 14 15  1  0
 15 16  1  0
 16 17  1  0
 17 18  1  0
 18 19  1  0
 14 20  1  0
  9  5  2  0
 20 11  2  0
 19 15  1  0
  3 21  1  0
  4 22  1  0
  4 23  1  0
  6 24  1  0
  7 25  1  0
 10 26  1  0
 12 27  1  0
 15 28  1  0
 16 29  1  0
 16 30  1  0
 17 31  1  0
 17 32  1  0
 18 33  1  0
 18 34  1  0
 19 35  1  0
 19 36  1  0
 20 37  1  0
M  END
>  <Energy>  (388) 
987.73858778948068

>  <compound_id>  (388) 
17252

>  <target_id>  (388) 
1

>  <reference_id>  (388) 
59

>  <inspiration_ids>  (388) 
[96, 59]

>  <energy_score>  (388) 
980.8382526258692

>  <distance_score>  (388) 
7.139300299569966

>  <path>  (388) 
/opt/xchem-fragalysis-2/maxwin/BulkDock/SCRATCH/511014/C17252-P59/C17252-P59.minimised.mol

>  <scratch_subdir>  (388) 
/opt/xchem-fragalysis-2/maxwin/BulkDock/SCRATCH/511014/C17252-P59

>  <fragmenstein_runtime>  (388) 
31.976805686950684

>  <fragmenstein_outcome>  (388) 
too moved

>  <fragmenstein_mode>  (388) 
expansion

>  <fragmenstein_error>  (388) 


$$$$
C17254-P96
     RDKit          3D

 50 52  0  0  0  0  0  0  0  0999 V2000
   -5.8024  -10.8475   28.1928 C   0  0  0  0  0  0  0  0  0  0  0  0
   -6.6399  -12.0409   28.3294 N   0  0  0  0  0  0  0  0  0  0  0  0
   -5.6841  -10.2564   28.6824 C   0  0  0  0  0  0  0  0  0  0  0  0
   -6.7828   -8.6072   28.9779 C   0  0  0  0  0  0  0  0  0  0  0  0
   -7.5351   -8.1614   27.9134 O   0  0  0  0  0  0  0  0  0  0  0  0
   -6.2261   -6.6379   29.2126 C   0  0  0  0  0  0  0  0  0  0  0  0
   -7.4525   -5.0518   29.3061 N   0  0  0  0  0  0  0  0  0  0  0  0
   -7.6713   -3.9877   27.7152 C   0  0  0  0  0  0  0  0  0  0  0  0
   -7.5453   -2.2903   27.4491 C   0  0  0  0  0  0  0  0  0  0  0  0
   -7.9376   -1.6269   26.2489 C   0  0  0  0  0  0  0  0  0  0  0  0
   -7.5474   -0.3245   26.4271 C   0  0  0  0  0  0  0  0  0  0  0  0
   -6.9923   -0.1759   27.6509 O   0  0  0  0  0  0  0  0  0  0  0  0
   -7.0039   -1.3867   28.3071 N   0  0  0  0  0  0  0  0  0  0  0  0
   -7.6804  -12.7156   26.9265 C   0  0  0  0  0  0  0  0  0  0  0  0
   -7.9068  -12.2705   25.8766 O   0  0  0  0  0  0  0  0  0  0  0  0
   -8.5839  -14.4495   27.0877 C   0  0  0  0  0  0  0  0  0  0  0  0
   -8.6835  -14.9657   25.8606 C   0  0  0  0  0  0  0  0  0  0  0  0
   -7.7071  -15.1400   27.0623 C   0  0  0  0  0  0  0  0  0  0  0  0
   -7.6479  -16.2919   27.5139 N   0  0  0  0  0  0  0  0  0  0  0  0
   -8.6904  -16.4081   26.9060 N   0  0  0  0  0  0  0  0  0  0  0  0
   -8.8198  -18.0150   27.9467 C   0  0  0  0  0  0  0  0  0  0  0  0
   -9.2445  -19.7859   27.6605 C   0  0  0  0  0  0  0  0  0  0  0  0
  -10.2178  -20.9303   28.3076 C   0  0  0  0  0  0  0  0  0  0  0  0
  -11.0351  -20.1439   29.2253 C   0  0  0  0  0  0  0  0  0  0  0  0
   -9.9706  -19.0703   29.4072 C   0  0  0  0  0  0  0  0  0  0  0  0
   -4.8843  -11.6839   28.4416 H   0  0  0  0  0  0  0  0  0  0  0  0
   -4.8879  -10.5658   27.2051 H   0  0  0  0  0  0  0  0  0  0  0  0
   -6.4247  -10.6855   27.1857 H   0  0  0  0  0  0  0  0  0  0  0  0
   -4.4757   -9.8908   28.7421 H   0  0  0  0  0  0  0  0  0  0  0  0
   -5.8755  -10.3022   29.8206 H   0  0  0  0  0  0  0  0  0  0  0  0
   -6.3296   -8.5841   30.0343 H   0  0  0  0  0  0  0  0  0  0  0  0
   -8.4879   -8.3232   27.9684 H   0  0  0  0  0  0  0  0  0  0  0  0
   -5.7618   -6.6483   30.2651 H   0  0  0  0  0  0  0  0  0  0  0  0
   -5.1580   -6.3867   28.9605 H   0  0  0  0  0  0  0  0  0  0  0  0
   -8.3887   -5.2132   29.6410 H   0  0  0  0  0  0  0  0  0  0  0  0
   -7.2146   -4.5722   26.9461 H   0  0  0  0  0  0  0  0  0  0  0  0
   -8.4017   -4.0442   26.9386 H   0  0  0  0  0  0  0  0  0  0  0  0
   -8.3866   -2.0561   25.3660 H   0  0  0  0  0  0  0  0  0  0  0  0
   -7.5846    0.5660   25.8175 H   0  0  0  0  0  0  0  0  0  0  0  0
   -8.6034  -14.3323   24.9886 H   0  0  0  0  0  0  0  0  0  0  0  0
   -6.8381  -14.5407   27.6119 H   0  0  0  0  0  0  0  0  0  0  0  0
   -9.6280  -17.2846   27.7751 H   0  0  0  0  0  0  0  0  0  0  0  0
   -8.0645  -20.1323   27.5500 H   0  0  0  0  0  0  0  0  0  0  0  0
   -9.8799  -19.8395   26.7968 H   0  0  0  0  0  0  0  0  0  0  0  0
   -9.6390  -21.7414   28.7530 H   0  0  0  0  0  0  0  0  0  0  0  0
  -10.8484  -21.4301   27.5618 H   0  0  0  0  0  0  0  0  0  0  0  0
  -11.9682  -19.7389   28.8892 H   0  0  0  0  0  0  0  0  0  0  0  0
  -11.2516  -20.6983   30.1470 H   0  0  0  0  0  0  0  0  0  0  0  0
  -10.0794  -18.7632   30.4667 H   0  0  0  0  0  0  0  0  0  0  0  0
   -9.3826  -19.7799   29.8830 H   0  0  0  0  0  0  0  0  0  0  0  0
  1  2  1  0
  2  3  1  0
  3  4  1  0
  4  5  1  0
  4  6  1  0
  6  7  1  0
  7  8  1  0
  8  9  1  0
  9 10  1  0
 10 11  2  0
 11 12  1  0
 12 13  1  0
  2 14  1  0
 14 15  2  0
 14 16  1  0
 16 17  2  0
 17 18  1  0
 18 19  2  0
 19 20  1  0
 20 21  1  0
 21 22  1  0
 22 23  1  0
 23 24  1  0
 24 25  1  0
 13  9  2  0
 20 16  1  0
 25 21  1  0
  1 26  1  0
  1 27  1  0
  1 28  1  0
  3 29  1  0
  3 30  1  0
  4 31  1  0
  5 32  1  0
  6 33  1  0
  6 34  1  0
  7 35  1  0
  8 36  1  0
  8 37  1  0
 10 38  1  0
 11 39  1  0
 17 40  1  0
 18 41  1  0
 21 42  1  0
 22 43  1  0
 22 44  1  0
 23 45  1  0
 23 46  1  0
 24 47  1  0
 24 48  1  0
 25 49  1  0
 25 50  1  0
M  END
>  <Energy>  (389) 
2228.142833172999

>  <compound_id>  (389) 
17254

>  <target_id>  (389) 
1

>  <reference_id>  (389) 
96

>  <inspiration_ids>  (389) 
[96, 59]

>  <energy_score>  (389) 
2138.8400827957826

>  <distance_score>  (389) 
8.835378561842731

>  <path>  (389) 
/opt/xchem-fragalysis-2/maxwin/BulkDock/SCRATCH/511014/C17254-P96/C17254-P96.minimised.mol

>  <scratch_subdir>  (389) 
/opt/xchem-fragalysis-2/maxwin/BulkDock/SCRATCH/511014/C17254-P96

>  <fragmenstein_runtime>  (389) 
21.233487844467163

>  <fragmenstein_outcome>  (389) 
too moved

>  <fragmenstein_mode>  (389) 
expansion

>  <fragmenstein_error>  (389) 


$$$$
C17254-P59
     RDKit          3D

 50 52  0  0  0  0  0  0  0  0999 V2000
   -7.1061  -13.3655   31.6128 C   0  0  0  0  0  0  0  0  0  0  0  0
   -7.2808  -14.1909   30.6880 N   0  0  0  0  0  0  0  0  0  0  0  0
   -7.0881  -12.3884   31.8582 C   0  0  0  0  0  0  0  0  0  0  0  0
   -5.9220  -11.0071   32.9422 C   0  0  0  0  0  0  0  0  0  0  0  0
   -4.7225  -11.4388   33.9673 O   0  0  0  0  0  0  0  0  0  0  0  0
   -5.6330   -9.2148   33.9738 C   0  0  0  0  0  0  0  0  0  0  0  0
   -6.2989   -7.5533   34.5725 N   0  0  0  0  0  0  0  0  0  0  0  0
   -6.4235   -5.6715   34.0912 C   0  0  0  0  0  0  0  0  0  0  0  0
   -5.1637   -4.1510   33.3436 C   0  0  0  0  0  0  0  0  0  0  0  0
   -4.9255   -2.7652   34.2500 C   0  0  0  0  0  0  0  0  0  0  0  0
   -4.2178   -1.9024   33.4704 C   0  0  0  0  0  0  0  0  0  0  0  0
   -4.0704   -2.4522   32.2607 O   0  0  0  0  0  0  0  0  0  0  0  0
   -4.7530   -3.6155   32.1346 N   0  0  0  0  0  0  0  0  0  0  0  0
   -8.4928  -14.3668   29.0742 C   0  0  0  0  0  0  0  0  0  0  0  0
   -9.2777  -13.6298   28.6001 O   0  0  0  0  0  0  0  0  0  0  0  0
   -8.5500  -16.2357   28.1436 C   0  0  0  0  0  0  0  0  0  0  0  0
   -7.3575  -16.7242   28.2075 C   0  0  0  0  0  0  0  0  0  0  0  0
   -8.1679  -17.6797   28.1462 C   0  0  0  0  0  0  0  0  0  0  0  0
   -9.0368  -17.4145   27.0848 N   0  0  0  0  0  0  0  0  0  0  0  0
   -9.4892  -18.0575   27.9969 N   0  0  0  0  0  0  0  0  0  0  0  0
   -9.7162  -20.1093   28.0554 C   0  0  0  0  0  0  0  0  0  0  0  0
  -11.1414  -21.1639   27.1169 C   0  0  0  0  0  0  0  0  0  0  0  0
  -12.2814  -21.7411   27.7886 C   0  0  0  0  0  0  0  0  0  0  0  0
  -11.5508  -22.1872   28.9439 C   0  0  0  0  0  0  0  0  0  0  0  0
  -11.0338  -20.8830   29.3579 C   0  0  0  0  0  0  0  0  0  0  0  0
   -7.8732  -14.1031   32.1016 H   0  0  0  0  0  0  0  0  0  0  0  0
   -6.3498  -14.0181   32.2403 H   0  0  0  0  0  0  0  0  0  0  0  0
   -6.1845  -13.5720   30.8803 H   0  0  0  0  0  0  0  0  0  0  0  0
   -7.7500  -11.5349   31.5628 H   0  0  0  0  0  0  0  0  0  0  0  0
   -7.7921  -12.4458   32.9224 H   0  0  0  0  0  0  0  0  0  0  0  0
   -5.5641  -10.6966   31.9694 H   0  0  0  0  0  0  0  0  0  0  0  0
   -4.9308  -12.3426   34.3034 H   0  0  0  0  0  0  0  0  0  0  0  0
   -4.5944   -8.9138   33.9241 H   0  0  0  0  0  0  0  0  0  0  0  0
   -5.6399   -9.6211   35.0064 H   0  0  0  0  0  0  0  0  0  0  0  0
   -7.3236   -7.7039   34.6008 H   0  0  0  0  0  0  0  0  0  0  0  0
   -7.1592   -6.0893   33.3592 H   0  0  0  0  0  0  0  0  0  0  0  0
   -6.8896   -5.3002   35.0164 H   0  0  0  0  0  0  0  0  0  0  0  0
   -5.2229   -2.6424   35.2749 H   0  0  0  0  0  0  0  0  0  0  0  0
   -3.7714   -0.9325   33.6192 H   0  0  0  0  0  0  0  0  0  0  0  0
   -6.5952  -16.3293   28.9268 H   0  0  0  0  0  0  0  0  0  0  0  0
   -8.1454  -18.3799   29.0135 H   0  0  0  0  0  0  0  0  0  0  0  0
  -10.0419  -19.9463   29.0304 H   0  0  0  0  0  0  0  0  0  0  0  0
  -10.8609  -22.2312   26.9841 H   0  0  0  0  0  0  0  0  0  0  0  0
  -11.5887  -20.8094   26.1798 H   0  0  0  0  0  0  0  0  0  0  0  0
  -12.7022  -22.5218   27.1424 H   0  0  0  0  0  0  0  0  0  0  0  0
  -13.0081  -21.0338   28.1068 H   0  0  0  0  0  0  0  0  0  0  0  0
  -12.3031  -22.5303   29.5968 H   0  0  0  0  0  0  0  0  0  0  0  0
  -10.7519  -22.9051   28.7501 H   0  0  0  0  0  0  0  0  0  0  0  0
  -10.7343  -21.0251   30.3935 H   0  0  0  0  0  0  0  0  0  0  0  0
  -11.9009  -20.2189   29.5295 H   0  0  0  0  0  0  0  0  0  0  0  0
  1  2  1  0
  2  3  1  0
  3  4  1  0
  4  5  1  0
  4  6  1  0
  6  7  1  0
  7  8  1  0
  8  9  1  0
  9 10  1  0
 10 11  2  0
 11 12  1  0
 12 13  1  0
  2 14  1  0
 14 15  2  0
 14 16  1  0
 16 17  2  0
 17 18  1  0
 18 19  2  0
 19 20  1  0
 20 21  1  0
 21 22  1  0
 22 23  1  0
 23 24  1  0
 24 25  1  0
 13  9  2  0
 20 16  1  0
 25 21  1  0
  1 26  1  0
  1 27  1  0
  1 28  1  0
  3 29  1  0
  3 30  1  0
  4 31  1  0
  5 32  1  0
  6 33  1  0
  6 34  1  0
  7 35  1  0
  8 36  1  0
  8 37  1  0
 10 38  1  0
 11 39  1  0
 17 40  1  0
 18 41  1  0
 21 42  1  0
 22 43  1  0
 22 44  1  0
 23 45  1  0
 23 46  1  0
 24 47  1  0
 24 48  1  0
 25 49  1  0
 25 50  1  0
M  END
>  <Energy>  (390) 
2635.4501891916511

>  <compound_id>  (390) 
17254

>  <target_id>  (390) 
1

>  <reference_id>  (390) 
59

>  <inspiration_ids>  (390) 
[96, 59]

>  <energy_score>  (390) 
2546.1474388144516

>  <distance_score>  (390) 
7.892201758172122

>  <path>  (390) 
/opt/xchem-fragalysis-2/maxwin/BulkDock/SCRATCH/511014/C17254-P59/C17254-P59.minimised.mol

>  <scratch_subdir>  (390) 
/opt/xchem-fragalysis-2/maxwin/BulkDock/SCRATCH/511014/C17254-P59

>  <fragmenstein_runtime>  (390) 
20.1903293132782

>  <fragmenstein_outcome>  (390) 
too moved

>  <fragmenstein_mode>  (390) 
expansion

>  <fragmenstein_error>  (390) 


$$$$
C17260-P96
     RDKit          3D

 38 40  0  0  0  0  0  0  0  0999 V2000
   -8.0993   -9.4910   40.2314 O   0  0  0  0  0  0  0  0  0  0  0  0
   -8.4387   -9.9168   39.1594 C   0  0  0  0  0  0  0  0  0  0  0  0
   -9.5233  -10.8881   39.1541 C   0  0  0  0  0  0  0  0  0  0  0  0
   -9.1639  -12.3089   39.4341 C   0  0  0  0  0  0  0  0  0  0  0  0
   -8.3813  -12.8889   40.4461 C   0  0  0  0  0  0  0  0  0  0  0  0
   -8.7171  -14.2341   40.4340 C   0  0  0  0  0  0  0  0  0  0  0  0
   -9.6695  -14.4017   39.4589 N   0  0  0  0  0  0  0  0  0  0  0  0
  -10.7092  -15.4286   39.3725 C   0  0  0  0  0  0  0  0  0  0  0  0
  -11.3298  -15.6434   37.9782 C   0  0  0  0  0  0  0  0  0  0  0  0
  -11.8887  -17.0678   37.9648 C   0  0  0  0  0  0  0  0  0  0  0  0
  -11.4021  -17.7388   39.2450 C   0  0  0  0  0  0  0  0  0  0  0  0
  -10.3251  -16.8308   39.8347 C   0  0  0  0  0  0  0  0  0  0  0  0
   -9.8269  -13.2623   38.7535 N   0  0  0  0  0  0  0  0  0  0  0  0
   -7.9269   -9.6304   37.8032 N   0  0  0  0  0  0  0  0  0  0  0  0
   -6.9111   -8.6621   37.3440 C   0  0  0  0  0  0  0  0  0  0  0  0
   -6.2668   -7.5371   35.8520 C   0  0  0  0  0  0  0  0  0  0  0  0
   -4.8853   -6.7191   35.2122 C   0  0  0  0  0  0  0  0  0  0  0  0
   -5.0192   -6.3786   33.9179 C   0  0  0  0  0  0  0  0  0  0  0  0
   -6.1443   -6.9557   33.5855 O   0  0  0  0  0  0  0  0  0  0  0  0
   -6.8935   -7.5884   34.5502 N   0  0  0  0  0  0  0  0  0  0  0  0
   -9.9361  -10.7248   38.1706 H   0  0  0  0  0  0  0  0  0  0  0  0
  -10.2858  -10.5601   39.8727 H   0  0  0  0  0  0  0  0  0  0  0  0
   -7.7458  -12.3912   41.1675 H   0  0  0  0  0  0  0  0  0  0  0  0
   -8.4314  -15.0420   41.0930 H   0  0  0  0  0  0  0  0  0  0  0  0
  -11.5058  -15.0617   40.0368 H   0  0  0  0  0  0  0  0  0  0  0  0
  -12.1292  -14.9154   37.7958 H   0  0  0  0  0  0  0  0  0  0  0  0
  -10.6041  -15.4968   37.1740 H   0  0  0  0  0  0  0  0  0  0  0  0
  -12.9844  -17.0516   37.9422 H   0  0  0  0  0  0  0  0  0  0  0  0
  -11.5705  -17.6116   37.0718 H   0  0  0  0  0  0  0  0  0  0  0  0
  -11.0510  -18.7608   39.0807 H   0  0  0  0  0  0  0  0  0  0  0  0
  -12.2393  -17.8051   39.9513 H   0  0  0  0  0  0  0  0  0  0  0  0
  -10.3093  -16.9051   40.9280 H   0  0  0  0  0  0  0  0  0  0  0  0
   -9.3222  -17.0826   39.4973 H   0  0  0  0  0  0  0  0  0  0  0  0
   -8.5026  -10.1028   37.1258 H   0  0  0  0  0  0  0  0  0  0  0  0
   -6.3157   -8.4650   38.2636 H   0  0  0  0  0  0  0  0  0  0  0  0
   -7.7434   -8.1432   37.8819 H   0  0  0  0  0  0  0  0  0  0  0  0
   -3.9336   -6.8083   35.6693 H   0  0  0  0  0  0  0  0  0  0  0  0
   -4.3867   -6.0040   33.1317 H   0  0  0  0  0  0  0  0  0  0  0  0
  1  2  2  0
  2  3  1  0
  3  4  1  0
  4  5  1  0
  5  6  2  0
  6  7  1  0
  7  8  1  0
  8  9  1  0
  9 10  1  0
 10 11  1  0
 11 12  1  0
  7 13  1  0
  2 14  1  0
 14 15  1  0
 15 16  1  0
 16 17  1  0
 17 18  2  0
 18 19  1  0
 19 20  1  0
 13  4  2  0
 20 16  2  0
 12  8  1  0
  3 21  1  0
  3 22  1  0
  5 23  1  0
  6 24  1  0
  8 25  1  0
  9 26  1  0
  9 27  1  0
 10 28  1  0
 10 29  1  0
 11 30  1  0
 11 31  1  0
 12 32  1  0
 12 33  1  0
 14 34  1  0
 15 35  1  0
 15 36  1  0
 17 37  1  0
 18 38  1  0
M  END
>  <Energy>  (391) 
225.48266918533491

>  <compound_id>  (391) 
17260

>  <target_id>  (391) 
1

>  <reference_id>  (391) 
96

>  <inspiration_ids>  (391) 
[96, 59]

>  <energy_score>  (391) 
176.12811928979562

>  <distance_score>  (391) 
10.445128593503616

>  <path>  (391) 
/opt/xchem-fragalysis-2/maxwin/BulkDock/SCRATCH/511014/C17260-P96/C17260-P96.minimised.mol

>  <scratch_subdir>  (391) 
/opt/xchem-fragalysis-2/maxwin/BulkDock/SCRATCH/511014/C17260-P96

>  <fragmenstein_runtime>  (391) 
37.05152702331543

>  <fragmenstein_outcome>  (391) 
too moved

>  <fragmenstein_mode>  (391) 
expansion

>  <fragmenstein_error>  (391) 


$$$$
C17260-P59
     RDKit          3D

 38 40  0  0  0  0  0  0  0  0999 V2000
   -4.7624  -11.6203   24.2706 O   0  0  0  0  0  0  0  0  0  0  0  0
   -5.7709  -11.4717   24.8989 C   0  0  0  0  0  0  0  0  0  0  0  0
   -6.4213  -12.6691   25.5735 C   0  0  0  0  0  0  0  0  0  0  0  0
   -5.6288  -13.4113   26.6061 C   0  0  0  0  0  0  0  0  0  0  0  0
   -5.4129  -13.1748   27.9837 C   0  0  0  0  0  0  0  0  0  0  0  0
   -5.2275  -14.4246   28.5468 C   0  0  0  0  0  0  0  0  0  0  0  0
   -5.3649  -15.3035   27.5101 N   0  0  0  0  0  0  0  0  0  0  0  0
   -5.9944  -16.6275   27.5673 C   0  0  0  0  0  0  0  0  0  0  0  0
   -7.5062  -16.4784   27.3388 C   0  0  0  0  0  0  0  0  0  0  0  0
   -7.6404  -16.3392   25.8210 C   0  0  0  0  0  0  0  0  0  0  0  0
   -6.4407  -17.0997   25.2232 C   0  0  0  0  0  0  0  0  0  0  0  0
   -5.5696  -17.5358   26.4094 C   0  0  0  0  0  0  0  0  0  0  0  0
   -5.2760  -14.6717   26.3236 N   0  0  0  0  0  0  0  0  0  0  0  0
   -6.5772  -10.2973   25.1183 N   0  0  0  0  0  0  0  0  0  0  0  0
   -6.3721   -8.9258   24.7320 C   0  0  0  0  0  0  0  0  0  0  0  0
   -7.1004   -8.0363   25.6764 C   0  0  0  0  0  0  0  0  0  0  0  0
   -8.4187   -7.5442   25.5417 C   0  0  0  0  0  0  0  0  0  0  0  0
   -8.6206   -6.8045   26.6730 C   0  0  0  0  0  0  0  0  0  0  0  0
   -7.4929   -6.8166   27.4194 O   0  0  0  0  0  0  0  0  0  0  0  0
   -6.5501   -7.6170   26.8242 N   0  0  0  0  0  0  0  0  0  0  0  0
   -6.6745  -13.3475   24.7461 H   0  0  0  0  0  0  0  0  0  0  0  0
   -7.3900  -12.4181   26.0162 H   0  0  0  0  0  0  0  0  0  0  0  0
   -5.5635  -12.2712   28.5365 H   0  0  0  0  0  0  0  0  0  0  0  0
   -5.1876  -14.7594   29.5717 H   0  0  0  0  0  0  0  0  0  0  0  0
   -5.7515  -17.0500   28.5458 H   0  0  0  0  0  0  0  0  0  0  0  0
   -7.9394  -15.6109   27.8473 H   0  0  0  0  0  0  0  0  0  0  0  0
   -8.0399  -17.3662   27.6844 H   0  0  0  0  0  0  0  0  0  0  0  0
   -8.6149  -16.6589   25.4439 H   0  0  0  0  0  0  0  0  0  0  0  0
   -7.5954  -15.2874   25.5288 H   0  0  0  0  0  0  0  0  0  0  0  0
   -6.7270  -17.9541   24.6034 H   0  0  0  0  0  0  0  0  0  0  0  0
   -5.8805  -16.4391   24.5511 H   0  0  0  0  0  0  0  0  0  0  0  0
   -4.5026  -17.4620   26.1747 H   0  0  0  0  0  0  0  0  0  0  0  0
   -5.7830  -18.5841   26.6340 H   0  0  0  0  0  0  0  0  0  0  0  0
   -7.4063  -10.5580   25.6345 H   0  0  0  0  0  0  0  0  0  0  0  0
   -5.3000   -8.7110   24.7026 H   0  0  0  0  0  0  0  0  0  0  0  0
   -6.7587   -8.8127   23.7138 H   0  0  0  0  0  0  0  0  0  0  0  0
   -9.1190   -7.7127   24.7374 H   0  0  0  0  0  0  0  0  0  0  0  0
   -9.4441   -6.2218   27.0567 H   0  0  0  0  0  0  0  0  0  0  0  0
  1  2  2  0
  2  3  1  0
  3  4  1  0
  4  5  1  0
  5  6  2  0
  6  7  1  0
  7  8  1  0
  8  9  1  0
  9 10  1  0
 10 11  1  0
 11 12  1  0
  7 13  1  0
  2 14  1  0
 14 15  1  0
 15 16  1  0
 16 17  1  0
 17 18  2  0
 18 19  1  0
 19 20  1  0
 13  4  2  0
 20 16  2  0
 12  8  1  0
  3 21  1  0
  3 22  1  0
  5 23  1  0
  6 24  1  0
  8 25  1  0
  9 26  1  0
  9 27  1  0
 10 28  1  0
 10 29  1  0
 11 30  1  0
 11 31  1  0
 12 32  1  0
 12 33  1  0
 14 34  1  0
 15 35  1  0
 15 36  1  0
 17 37  1  0
 18 38  1  0
M  END
>  <Energy>  (392) 
48.022016501181717

>  <compound_id>  (392) 
17260

>  <target_id>  (392) 
1

>  <reference_id>  (392) 
59

>  <inspiration_ids>  (392) 
[96, 59]

>  <energy_score>  (392) 
-1.3325333943622013

>  <distance_score>  (392) 
11.525488012260032

>  <path>  (392) 
/opt/xchem-fragalysis-2/maxwin/BulkDock/SCRATCH/511014/C17260-P59/C17260-P59.minimised.mol

>  <scratch_subdir>  (392) 
/opt/xchem-fragalysis-2/maxwin/BulkDock/SCRATCH/511014/C17260-P59

>  <fragmenstein_runtime>  (392) 
41.135783672332764

>  <fragmenstein_outcome>  (392) 
too moved

>  <fragmenstein_mode>  (392) 
expansion

>  <fragmenstein_error>  (392) 


$$$$
C17266-P96
     RDKit          3D

 52 54  0  0  0  0  0  0  0  0999 V2000
   -9.6134  -14.0412   33.2387 C   0  0  0  0  0  0  0  0  0  0  0  0
   -9.5340  -13.2029   31.6844 C   0  0  0  0  0  0  0  0  0  0  0  0
  -11.2727  -13.9962   30.8159 C   0  0  0  0  0  0  0  0  0  0  0  0
  -12.4228  -15.0542   29.5296 C   0  0  0  0  0  0  0  0  0  0  0  0
  -13.5774  -14.3387   30.1932 C   0  0  0  0  0  0  0  0  0  0  0  0
  -11.7588  -16.8503   28.9943 N   0  0  0  0  0  0  0  0  0  0  0  0
  -12.5016  -18.4609   29.1203 C   0  0  0  0  0  0  0  0  0  0  0  0
  -13.6398  -18.6685   29.4735 O   0  0  0  0  0  0  0  0  0  0  0  0
  -11.6682  -19.9622   28.9441 C   0  0  0  0  0  0  0  0  0  0  0  0
  -11.0645  -20.7846   27.9873 C   0  0  0  0  0  0  0  0  0  0  0  0
  -10.6669  -22.0020   28.5210 C   0  0  0  0  0  0  0  0  0  0  0  0
  -10.9648  -22.0633   29.7959 N   0  0  0  0  0  0  0  0  0  0  0  0
  -11.6226  -20.9058   30.0554 N   0  0  0  0  0  0  0  0  0  0  0  0
  -12.2211  -20.8756   31.3928 C   0  0  0  0  0  0  0  0  0  0  0  0
  -12.5554  -22.2519   32.0225 C   0  0  0  0  0  0  0  0  0  0  0  0
  -11.4311  -22.5826   33.0017 C   0  0  0  0  0  0  0  0  0  0  0  0
  -10.4783  -21.4014   32.9829 C   0  0  0  0  0  0  0  0  0  0  0  0
  -11.2932  -20.2422   32.4308 C   0  0  0  0  0  0  0  0  0  0  0  0
   -7.9778  -12.0746   31.3312 N   0  0  0  0  0  0  0  0  0  0  0  0
   -7.1693  -10.4478   30.4547 C   0  0  0  0  0  0  0  0  0  0  0  0
   -6.0187   -8.7911   30.3090 C   0  0  0  0  0  0  0  0  0  0  0  0
   -4.4502   -8.0971   29.7981 C   0  0  0  0  0  0  0  0  0  0  0  0
   -4.2804   -6.8455   30.2997 C   0  0  0  0  0  0  0  0  0  0  0  0
   -5.2745   -6.7164   31.1727 O   0  0  0  0  0  0  0  0  0  0  0  0
   -6.1198   -7.7528   31.2226 N   0  0  0  0  0  0  0  0  0  0  0  0
  -10.6337  -13.9442   33.6070 H   0  0  0  0  0  0  0  0  0  0  0  0
   -8.9146  -13.7794   34.0444 H   0  0  0  0  0  0  0  0  0  0  0  0
   -9.3135  -15.0868   33.1534 H   0  0  0  0  0  0  0  0  0  0  0  0
   -8.7575  -13.9539   31.5717 H   0  0  0  0  0  0  0  0  0  0  0  0
  -11.9862  -13.6060   31.5623 H   0  0  0  0  0  0  0  0  0  0  0  0
  -11.1808  -13.4798   29.8517 H   0  0  0  0  0  0  0  0  0  0  0  0
  -12.4191  -14.4944   28.5856 H   0  0  0  0  0  0  0  0  0  0  0  0
  -13.6098  -14.4034   31.2777 H   0  0  0  0  0  0  0  0  0  0  0  0
  -13.6320  -13.2575   30.0955 H   0  0  0  0  0  0  0  0  0  0  0  0
  -14.4156  -14.6677   29.6131 H   0  0  0  0  0  0  0  0  0  0  0  0
  -10.8277  -16.9451   28.5965 H   0  0  0  0  0  0  0  0  0  0  0  0
  -10.9933  -20.5783   26.9449 H   0  0  0  0  0  0  0  0  0  0  0  0
  -10.1889  -22.8395   28.0323 H   0  0  0  0  0  0  0  0  0  0  0  0
  -13.1910  -20.3986   31.3087 H   0  0  0  0  0  0  0  0  0  0  0  0
  -13.4896  -22.1660   32.5937 H   0  0  0  0  0  0  0  0  0  0  0  0
  -12.7193  -23.0507   31.2919 H   0  0  0  0  0  0  0  0  0  0  0  0
  -10.9159  -23.5084   32.7272 H   0  0  0  0  0  0  0  0  0  0  0  0
  -11.8391  -22.7166   34.0085 H   0  0  0  0  0  0  0  0  0  0  0  0
   -9.6354  -21.6293   32.3259 H   0  0  0  0  0  0  0  0  0  0  0  0
  -10.0703  -21.1827   33.9744 H   0  0  0  0  0  0  0  0  0  0  0  0
  -11.8895  -19.8020   33.2391 H   0  0  0  0  0  0  0  0  0  0  0  0
  -10.6390  -19.4660   32.0267 H   0  0  0  0  0  0  0  0  0  0  0  0
   -7.7192  -12.6358   30.5179 H   0  0  0  0  0  0  0  0  0  0  0  0
   -6.6240  -11.0862   29.7444 H   0  0  0  0  0  0  0  0  0  0  0  0
   -8.0348   -9.8165   30.5817 H   0  0  0  0  0  0  0  0  0  0  0  0
   -3.7760   -8.6219   29.1275 H   0  0  0  0  0  0  0  0  0  0  0  0
   -3.5334   -6.0685   30.2470 H   0  0  0  0  0  0  0  0  0  0  0  0
  1  2  1  0
  2  3  1  0
  3  4  1  0
  4  5  1  0
  4  6  1  0
  6  7  1  0
  7  8  2  0
  7  9  1  0
  9 10  2  0
 10 11  1  0
 11 12  2  0
 12 13  1  0
 13 14  1  0
 14 15  1  0
 15 16  1  0
 16 17  1  0
 17 18  1  0
  2 19  1  0
 19 20  1  0
 20 21  1  0
 21 22  1  0
 22 23  2  0
 23 24  1  0
 24 25  1  0
 13  9  1  0
 18 14  1  0
 25 21  2  0
  1 26  1  0
  1 27  1  0
  1 28  1  0
  2 29  1  0
  3 30  1  0
  3 31  1  0
  4 32  1  0
  5 33  1  0
  5 34  1  0
  5 35  1  0
  6 36  1  0
 10 37  1  0
 11 38  1  0
 14 39  1  0
 15 40  1  0
 15 41  1  0
 16 42  1  0
 16 43  1  0
 17 44  1  0
 17 45  1  0
 18 46  1  0
 18 47  1  0
 19 48  1  0
 20 49  1  0
 20 50  1  0
 22 51  1  0
 23 52  1  0
M  END
>  <Energy>  (393) 
863.08210784821415

>  <compound_id>  (393) 
17266

>  <target_id>  (393) 
1

>  <reference_id>  (393) 
96

>  <inspiration_ids>  (393) 
[96, 59]

>  <energy_score>  (393) 
825.7617744687866

>  <distance_score>  (393) 
9.756853993248521

>  <path>  (393) 
/opt/xchem-fragalysis-2/maxwin/BulkDock/SCRATCH/511014/C17266-P96/C17266-P96.minimised.mol

>  <scratch_subdir>  (393) 
/opt/xchem-fragalysis-2/maxwin/BulkDock/SCRATCH/511014/C17266-P96

>  <fragmenstein_runtime>  (393) 
19.932372093200684

>  <fragmenstein_outcome>  (393) 
too moved

>  <fragmenstein_mode>  (393) 
expansion

>  <fragmenstein_error>  (393) 


$$$$
C17266-P59
     RDKit          3D

 52 54  0  0  0  0  0  0  0  0999 V2000
   -7.1558   -7.5482   33.2904 C   0  0  0  0  0  0  0  0  0  0  0  0
   -5.8561   -9.2258   33.7064 C   0  0  0  0  0  0  0  0  0  0  0  0
   -6.9049  -11.1460   33.4148 C   0  0  0  0  0  0  0  0  0  0  0  0
   -8.5691  -12.3786   32.7869 C   0  0  0  0  0  0  0  0  0  0  0  0
   -9.1360  -10.9629   31.9568 C   0  0  0  0  0  0  0  0  0  0  0  0
   -9.8457  -14.1224   32.4594 N   0  0  0  0  0  0  0  0  0  0  0  0
  -10.9143  -14.8344   30.8024 C   0  0  0  0  0  0  0  0  0  0  0  0
  -10.7585  -14.2287   29.7416 O   0  0  0  0  0  0  0  0  0  0  0  0
  -12.3476  -16.2521   30.5589 C   0  0  0  0  0  0  0  0  0  0  0  0
  -12.8858  -15.9024   29.2189 C   0  0  0  0  0  0  0  0  0  0  0  0
  -11.8640  -16.9711   28.4084 C   0  0  0  0  0  0  0  0  0  0  0  0
  -11.4112  -17.9167   29.1511 N   0  0  0  0  0  0  0  0  0  0  0  0
  -12.5361  -17.8497   29.4517 N   0  0  0  0  0  0  0  0  0  0  0  0
  -12.7741  -19.7342   29.3859 C   0  0  0  0  0  0  0  0  0  0  0  0
  -13.0075  -21.0730   28.6000 C   0  0  0  0  0  0  0  0  0  0  0  0
  -12.0678  -21.6739   27.6222 C   0  0  0  0  0  0  0  0  0  0  0  0
  -10.9321  -21.6072   28.5721 C   0  0  0  0  0  0  0  0  0  0  0  0
  -11.4594  -20.7833   29.8324 C   0  0  0  0  0  0  0  0  0  0  0  0
   -5.2879   -7.5073   34.6065 N   0  0  0  0  0  0  0  0  0  0  0  0
   -6.4089   -5.7236   34.5913 C   0  0  0  0  0  0  0  0  0  0  0  0
   -5.5499   -3.8418   34.9080 C   0  0  0  0  0  0  0  0  0  0  0  0
   -4.7535   -2.9061   33.7254 C   0  0  0  0  0  0  0  0  0  0  0  0
   -4.5627   -1.6634   34.2372 C   0  0  0  0  0  0  0  0  0  0  0  0
   -5.3774   -1.5671   35.2977 O   0  0  0  0  0  0  0  0  0  0  0  0
   -6.2557   -2.6284   35.3017 N   0  0  0  0  0  0  0  0  0  0  0  0
   -7.7337   -7.0410   34.0997 H   0  0  0  0  0  0  0  0  0  0  0  0
   -6.9185   -7.0062   32.3535 H   0  0  0  0  0  0  0  0  0  0  0  0
   -8.2478   -7.6814   33.0773 H   0  0  0  0  0  0  0  0  0  0  0  0
   -5.3372   -9.6337   34.6146 H   0  0  0  0  0  0  0  0  0  0  0  0
   -7.3799  -11.1619   34.4293 H   0  0  0  0  0  0  0  0  0  0  0  0
   -6.0982  -11.6906   32.9911 H   0  0  0  0  0  0  0  0  0  0  0  0
   -7.6632  -12.9938   32.4838 H   0  0  0  0  0  0  0  0  0  0  0  0
   -9.9348  -10.8711   31.2752 H   0  0  0  0  0  0  0  0  0  0  0  0
   -8.3844  -10.6619   31.2776 H   0  0  0  0  0  0  0  0  0  0  0  0
   -9.6128  -10.1766   32.5036 H   0  0  0  0  0  0  0  0  0  0  0  0
   -9.9956  -14.7513   33.2392 H   0  0  0  0  0  0  0  0  0  0  0  0
  -13.8840  -15.8777   28.8296 H   0  0  0  0  0  0  0  0  0  0  0  0
  -11.2509  -16.5499   27.5457 H   0  0  0  0  0  0  0  0  0  0  0  0
  -13.7762  -19.6156   29.7076 H   0  0  0  0  0  0  0  0  0  0  0  0
  -13.6202  -21.4416   29.4426 H   0  0  0  0  0  0  0  0  0  0  0  0
  -12.7500  -22.0381   29.1227 H   0  0  0  0  0  0  0  0  0  0  0  0
  -11.9928  -21.1418   26.6835 H   0  0  0  0  0  0  0  0  0  0  0  0
  -12.2746  -22.7037   27.3028 H   0  0  0  0  0  0  0  0  0  0  0  0
  -10.5734  -22.6061   28.7992 H   0  0  0  0  0  0  0  0  0  0  0  0
  -10.2019  -21.0596   28.0372 H   0  0  0  0  0  0  0  0  0  0  0  0
  -10.7977  -20.4260   30.5479 H   0  0  0  0  0  0  0  0  0  0  0  0
  -11.7331  -21.5388   30.5310 H   0  0  0  0  0  0  0  0  0  0  0  0
   -5.5275   -7.9983   35.5257 H   0  0  0  0  0  0  0  0  0  0  0  0
   -7.1945   -5.8431   35.3560 H   0  0  0  0  0  0  0  0  0  0  0  0
   -6.7447   -5.7393   33.6293 H   0  0  0  0  0  0  0  0  0  0  0  0
   -4.4020   -3.2816   32.7806 H   0  0  0  0  0  0  0  0  0  0  0  0
   -4.0101   -0.7810   33.9610 H   0  0  0  0  0  0  0  0  0  0  0  0
  1  2  1  0
  2  3  1  0
  3  4  1  0
  4  5  1  0
  4  6  1  0
  6  7  1  0
  7  8  2  0
  7  9  1  0
  9 10  2  0
 10 11  1  0
 11 12  2  0
 12 13  1  0
 13 14  1  0
 14 15  1  0
 15 16  1  0
 16 17  1  0
 17 18  1  0
  2 19  1  0
 19 20  1  0
 20 21  1  0
 21 22  1  0
 22 23  2  0
 23 24  1  0
 24 25  1  0
 13  9  1  0
 18 14  1  0
 25 21  2  0
  1 26  1  0
  1 27  1  0
  1 28  1  0
  2 29  1  0
  3 30  1  0
  3 31  1  0
  4 32  1  0
  5 33  1  0
  5 34  1  0
  5 35  1  0
  6 36  1  0
 10 37  1  0
 11 38  1  0
 14 39  1  0
 15 40  1  0
 15 41  1  0
 16 42  1  0
 16 43  1  0
 17 44  1  0
 17 45  1  0
 18 46  1  0
 18 47  1  0
 19 48  1  0
 20 49  1  0
 20 50  1  0
 22 51  1  0
 23 52  1  0
M  END
>  <Energy>  (394) 
2034.4838100485863

>  <compound_id>  (394) 
17266

>  <target_id>  (394) 
1

>  <reference_id>  (394) 
59

>  <inspiration_ids>  (394) 
[96, 59]

>  <energy_score>  (394) 
1997.163476669195

>  <distance_score>  (394) 
8.168736758576586

>  <path>  (394) 
/opt/xchem-fragalysis-2/maxwin/BulkDock/SCRATCH/511014/C17266-P59/C17266-P59.minimised.mol

>  <scratch_subdir>  (394) 
/opt/xchem-fragalysis-2/maxwin/BulkDock/SCRATCH/511014/C17266-P59

>  <fragmenstein_runtime>  (394) 
30.8394558429718

>  <fragmenstein_outcome>  (394) 
too moved

>  <fragmenstein_mode>  (394) 
expansion

>  <fragmenstein_error>  (394) 


$$$$
C17269-P96
     RDKit          3D

 38 40  0  0  0  0  0  0  0  0999 V2000
   -6.5703   -7.2263   34.3630 O   0  0  0  0  0  0  0  0  0  0  0  0
   -6.2011   -6.0924   34.3483 C   0  0  0  0  0  0  0  0  0  0  0  0
   -6.9282   -4.7977   35.1527 N   0  0  0  0  0  0  0  0  0  0  0  0
   -8.7387   -4.6758   36.2898 C   0  0  0  0  0  0  0  0  0  0  0  0
  -10.3006   -5.7885   36.7118 C   0  0  0  0  0  0  0  0  0  0  0  0
  -10.7898   -6.7556   38.0454 C   0  0  0  0  0  0  0  0  0  0  0  0
  -11.1974   -6.3404   39.3412 C   0  0  0  0  0  0  0  0  0  0  0  0
  -11.0921   -7.4782   40.1228 C   0  0  0  0  0  0  0  0  0  0  0  0
  -10.6428   -8.4783   39.3020 N   0  0  0  0  0  0  0  0  0  0  0  0
  -10.3833   -9.8695   39.6084 C   0  0  0  0  0  0  0  0  0  0  0  0
   -9.1973  -10.4788   38.8446 C   0  0  0  0  0  0  0  0  0  0  0  0
   -8.8512  -11.7964   39.5491 C   0  0  0  0  0  0  0  0  0  0  0  0
   -9.7290  -11.8339   40.7913 C   0  0  0  0  0  0  0  0  0  0  0  0
  -10.0984  -10.3628   41.0268 C   0  0  0  0  0  0  0  0  0  0  0  0
  -10.6285   -8.0853   38.0092 N   0  0  0  0  0  0  0  0  0  0  0  0
   -4.9032   -5.9233   33.2763 C   0  0  0  0  0  0  0  0  0  0  0  0
   -3.6028   -5.2699   33.0597 C   0  0  0  0  0  0  0  0  0  0  0  0
   -3.1099   -5.6341   31.8370 C   0  0  0  0  0  0  0  0  0  0  0  0
   -4.0159   -6.4282   31.2709 O   0  0  0  0  0  0  0  0  0  0  0  0
   -5.0791   -6.5959   32.1142 N   0  0  0  0  0  0  0  0  0  0  0  0
   -6.4732   -3.9684   34.9030 H   0  0  0  0  0  0  0  0  0  0  0  0
   -8.8696   -3.6802   36.8267 H   0  0  0  0  0  0  0  0  0  0  0  0
   -9.4747   -4.3739   35.4848 H   0  0  0  0  0  0  0  0  0  0  0  0
  -10.5307   -6.6048   36.0320 H   0  0  0  0  0  0  0  0  0  0  0  0
  -10.9149   -4.9424   37.0119 H   0  0  0  0  0  0  0  0  0  0  0  0
  -11.4241   -5.3409   39.6834 H   0  0  0  0  0  0  0  0  0  0  0  0
  -11.2542   -7.6390   41.1788 H   0  0  0  0  0  0  0  0  0  0  0  0
  -11.3370  -10.3154   39.3737 H   0  0  0  0  0  0  0  0  0  0  0  0
   -9.3759  -10.5955   37.7776 H   0  0  0  0  0  0  0  0  0  0  0  0
   -8.3544   -9.7862   38.9196 H   0  0  0  0  0  0  0  0  0  0  0  0
   -7.8063  -11.7795   39.8667 H   0  0  0  0  0  0  0  0  0  0  0  0
   -8.9911  -12.6752   38.9141 H   0  0  0  0  0  0  0  0  0  0  0  0
  -10.6329  -12.4243   40.6021 H   0  0  0  0  0  0  0  0  0  0  0  0
   -9.2144  -12.2708   41.6520 H   0  0  0  0  0  0  0  0  0  0  0  0
  -10.9650  -10.2634   41.6879 H   0  0  0  0  0  0  0  0  0  0  0  0
   -9.2624   -9.8130   41.4758 H   0  0  0  0  0  0  0  0  0  0  0  0
   -2.9869   -4.6197   33.6586 H   0  0  0  0  0  0  0  0  0  0  0  0
   -2.2198   -5.4200   31.2635 H   0  0  0  0  0  0  0  0  0  0  0  0
  1  2  2  0
  2  3  1  0
  3  4  1  0
  4  5  1  0
  5  6  1  0
  6  7  1  0
  7  8  2  0
  8  9  1  0
  9 10  1  0
 10 11  1  0
 11 12  1  0
 12 13  1  0
 13 14  1  0
  9 15  1  0
  2 16  1  0
 16 17  1  0
 17 18  2  0
 18 19  1  0
 19 20  1  0
 15  6  2  0
 20 16  2  0
 14 10  1  0
  3 21  1  0
  4 22  1  0
  4 23  1  0
  5 24  1  0
  5 25  1  0
  7 26  1  0
  8 27  1  0
 10 28  1  0
 11 29  1  0
 11 30  1  0
 12 31  1  0
 12 32  1  0
 13 33  1  0
 13 34  1  0
 14 35  1  0
 14 36  1  0
 17 37  1  0
 18 38  1  0
M  END
>  <Energy>  (395) 
372.61493070160594

>  <compound_id>  (395) 
17269

>  <target_id>  (395) 
1

>  <reference_id>  (395) 
96

>  <inspiration_ids>  (395) 
[96, 59]

>  <energy_score>  (395) 
310.2492655277167

>  <distance_score>  (395) 
10.785154503389053

>  <path>  (395) 
/opt/xchem-fragalysis-2/maxwin/BulkDock/SCRATCH/511014/C17269-P96/C17269-P96.minimised.mol

>  <scratch_subdir>  (395) 
/opt/xchem-fragalysis-2/maxwin/BulkDock/SCRATCH/511014/C17269-P96

>  <fragmenstein_runtime>  (395) 
28.368141174316406

>  <fragmenstein_outcome>  (395) 
too moved

>  <fragmenstein_mode>  (395) 
expansion

>  <fragmenstein_error>  (395) 


$$$$
C17269-P59
     RDKit          3D

 38 40  0  0  0  0  0  0  0  0999 V2000
   -5.2383   -2.6212   35.0211 O   0  0  0  0  0  0  0  0  0  0  0  0
   -4.9514   -3.1226   33.9450 C   0  0  0  0  0  0  0  0  0  0  0  0
   -5.4560   -4.6697   33.3077 N   0  0  0  0  0  0  0  0  0  0  0  0
   -6.5379   -6.1678   34.1599 C   0  0  0  0  0  0  0  0  0  0  0  0
   -5.5048   -8.0088   33.7760 C   0  0  0  0  0  0  0  0  0  0  0  0
   -5.6794   -9.8950   34.1563 C   0  0  0  0  0  0  0  0  0  0  0  0
   -6.0679  -10.3901   35.4202 C   0  0  0  0  0  0  0  0  0  0  0  0
   -7.4549  -11.0829   35.0732 C   0  0  0  0  0  0  0  0  0  0  0  0
   -7.3393  -11.6964   33.4460 N   0  0  0  0  0  0  0  0  0  0  0  0
   -7.8286  -13.1067   32.9316 C   0  0  0  0  0  0  0  0  0  0  0  0
   -7.9367  -14.7225   31.9606 C   0  0  0  0  0  0  0  0  0  0  0  0
   -9.4029  -15.6967   32.8791 C   0  0  0  0  0  0  0  0  0  0  0  0
  -10.1686  -14.7656   33.5864 C   0  0  0  0  0  0  0  0  0  0  0  0
   -9.3651  -13.6006   33.0871 C   0  0  0  0  0  0  0  0  0  0  0  0
   -5.9461  -10.9369   33.1970 N   0  0  0  0  0  0  0  0  0  0  0  0
   -4.1046   -2.3097   33.0008 C   0  0  0  0  0  0  0  0  0  0  0  0
   -2.8083   -2.5723   32.4582 C   0  0  0  0  0  0  0  0  0  0  0  0
   -2.4567   -1.4373   31.7803 C   0  0  0  0  0  0  0  0  0  0  0  0
   -3.4270   -0.5164   31.9430 O   0  0  0  0  0  0  0  0  0  0  0  0
   -4.4389   -1.0337   32.7270 N   0  0  0  0  0  0  0  0  0  0  0  0
   -5.1246   -4.7684   32.3655 H   0  0  0  0  0  0  0  0  0  0  0  0
   -7.0026   -5.9161   35.1250 H   0  0  0  0  0  0  0  0  0  0  0  0
   -7.4171   -6.3246   33.5004 H   0  0  0  0  0  0  0  0  0  0  0  0
   -4.9871   -8.2707   32.7643 H   0  0  0  0  0  0  0  0  0  0  0  0
   -6.5597   -7.7329   33.3755 H   0  0  0  0  0  0  0  0  0  0  0  0
   -5.7881  -10.0117   36.3843 H   0  0  0  0  0  0  0  0  0  0  0  0
   -8.0607  -11.6634   35.7323 H   0  0  0  0  0  0  0  0  0  0  0  0
   -7.2742  -12.8069   32.0280 H   0  0  0  0  0  0  0  0  0  0  0  0
   -8.0532  -14.4735   30.8905 H   0  0  0  0  0  0  0  0  0  0  0  0
   -7.0733  -15.4146   31.8389 H   0  0  0  0  0  0  0  0  0  0  0  0
  -10.2676  -15.7946   32.2734 H   0  0  0  0  0  0  0  0  0  0  0  0
   -9.2417  -16.6498   33.4252 H   0  0  0  0  0  0  0  0  0  0  0  0
  -10.3673  -15.3438   34.4624 H   0  0  0  0  0  0  0  0  0  0  0  0
  -11.2064  -14.7510   33.2240 H   0  0  0  0  0  0  0  0  0  0  0  0
   -9.7071  -12.6866   32.8301 H   0  0  0  0  0  0  0  0  0  0  0  0
   -9.7251  -13.9499   32.1469 H   0  0  0  0  0  0  0  0  0  0  0  0
   -2.1648   -3.4227   32.6129 H   0  0  0  0  0  0  0  0  0  0  0  0
   -1.5921   -1.1207   31.2150 H   0  0  0  0  0  0  0  0  0  0  0  0
  1  2  2  0
  2  3  1  0
  3  4  1  0
  4  5  1  0
  5  6  1  0
  6  7  1  0
  7  8  2  0
  8  9  1  0
  9 10  1  0
 10 11  1  0
 11 12  1  0
 12 13  1  0
 13 14  1  0
  9 15  1  0
  2 16  1  0
 16 17  1  0
 17 18  2  0
 18 19  1  0
 19 20  1  0
 15  6  2  0
 20 16  2  0
 14 10  1  0
  3 21  1  0
  4 22  1  0
  4 23  1  0
  5 24  1  0
  5 25  1  0
  7 26  1  0
  8 27  1  0
 10 28  1  0
 11 29  1  0
 11 30  1  0
 12 31  1  0
 12 32  1  0
 13 33  1  0
 13 34  1  0
 14 35  1  0
 14 36  1  0
 17 37  1  0
 18 38  1  0
M  END
>  <Energy>  (396) 
784.70605380417351

>  <compound_id>  (396) 
17269

>  <target_id>  (396) 
1

>  <reference_id>  (396) 
59

>  <inspiration_ids>  (396) 
[96, 59]

>  <energy_score>  (396) 
722.3403886302837

>  <distance_score>  (396) 
7.398380178680401

>  <path>  (396) 
/opt/xchem-fragalysis-2/maxwin/BulkDock/SCRATCH/511014/C17269-P59/C17269-P59.minimised.mol

>  <scratch_subdir>  (396) 
/opt/xchem-fragalysis-2/maxwin/BulkDock/SCRATCH/511014/C17269-P59

>  <fragmenstein_runtime>  (396) 
21.67341113090515

>  <fragmenstein_outcome>  (396) 
too moved

>  <fragmenstein_mode>  (396) 
expansion

>  <fragmenstein_error>  (396) 


$$$$
C17272-P96
     RDKit          3D

 52 54  0  0  0  0  0  0  0  0999 V2000
  -10.8157   -7.8694   37.1786 C   0  0  0  0  0  0  0  0  0  0  0  0
  -10.8367   -8.3055   35.6747 C   0  0  0  0  0  0  0  0  0  0  0  0
  -12.2658   -9.1389   35.9647 C   0  0  0  0  0  0  0  0  0  0  0  0
  -13.3705   -9.3582   34.8980 C   0  0  0  0  0  0  0  0  0  0  0  0
  -14.5510   -8.4156   35.1054 C   0  0  0  0  0  0  0  0  0  0  0  0
  -13.7296  -10.7784   34.9457 N   0  0  0  0  0  0  0  0  0  0  0  0
  -14.4524  -11.5936   34.0252 C   0  0  0  0  0  0  0  0  0  0  0  0
  -15.0231  -11.3122   33.0151 O   0  0  0  0  0  0  0  0  0  0  0  0
  -14.3165  -13.0195   34.4556 C   0  0  0  0  0  0  0  0  0  0  0  0
  -13.7743  -14.0384   33.6172 C   0  0  0  0  0  0  0  0  0  0  0  0
  -13.4115  -15.0684   34.4530 C   0  0  0  0  0  0  0  0  0  0  0  0
  -13.7625  -14.6668   35.7059 N   0  0  0  0  0  0  0  0  0  0  0  0
  -13.4816  -15.3974   36.9339 C   0  0  0  0  0  0  0  0  0  0  0  0
  -12.2293  -14.8920   37.6503 C   0  0  0  0  0  0  0  0  0  0  0  0
  -12.7234  -13.7610   38.5430 C   0  0  0  0  0  0  0  0  0  0  0  0
  -14.1694  -14.1069   38.8922 C   0  0  0  0  0  0  0  0  0  0  0  0
  -14.5717  -15.2835   38.0009 C   0  0  0  0  0  0  0  0  0  0  0  0
  -14.2734  -13.4149   35.7417 N   0  0  0  0  0  0  0  0  0  0  0  0
   -9.3540   -8.8480   34.9989 N   0  0  0  0  0  0  0  0  0  0  0  0
   -7.6801   -8.1254   34.2499 C   0  0  0  0  0  0  0  0  0  0  0  0
   -6.2298   -7.0067   33.6850 C   0  0  0  0  0  0  0  0  0  0  0  0
   -5.0706   -6.4099   34.2607 C   0  0  0  0  0  0  0  0  0  0  0  0
   -4.1777   -6.0141   33.2922 C   0  0  0  0  0  0  0  0  0  0  0  0
   -4.6792   -6.3356   32.1204 O   0  0  0  0  0  0  0  0  0  0  0  0
   -5.8303   -6.9967   32.3209 N   0  0  0  0  0  0  0  0  0  0  0  0
   -9.9987   -7.2912   37.5281 H   0  0  0  0  0  0  0  0  0  0  0  0
  -10.7900   -8.7526   37.8341 H   0  0  0  0  0  0  0  0  0  0  0  0
  -11.6832   -7.2594   37.4665 H   0  0  0  0  0  0  0  0  0  0  0  0
  -11.1577   -8.0265   34.6813 H   0  0  0  0  0  0  0  0  0  0  0  0
  -12.8345   -8.6069   36.7423 H   0  0  0  0  0  0  0  0  0  0  0  0
  -12.0245  -10.0632   36.4902 H   0  0  0  0  0  0  0  0  0  0  0  0
  -12.9966   -9.1465   33.8974 H   0  0  0  0  0  0  0  0  0  0  0  0
  -14.2364   -7.3685   35.0738 H   0  0  0  0  0  0  0  0  0  0  0  0
  -15.3021   -8.5657   34.3222 H   0  0  0  0  0  0  0  0  0  0  0  0
  -15.0460   -8.6021   36.0648 H   0  0  0  0  0  0  0  0  0  0  0  0
  -13.4481  -11.3476   35.7409 H   0  0  0  0  0  0  0  0  0  0  0  0
  -13.5498  -13.9469   32.5618 H   0  0  0  0  0  0  0  0  0  0  0  0
  -12.8763  -15.9920   34.2763 H   0  0  0  0  0  0  0  0  0  0  0  0
  -13.3582  -16.4443   36.6351 H   0  0  0  0  0  0  0  0  0  0  0  0
  -11.8160  -15.6879   38.2803 H   0  0  0  0  0  0  0  0  0  0  0  0
  -11.4376  -14.5635   36.9704 H   0  0  0  0  0  0  0  0  0  0  0  0
  -12.6882  -12.8065   38.0056 H   0  0  0  0  0  0  0  0  0  0  0  0
  -12.1024  -13.6505   39.4375 H   0  0  0  0  0  0  0  0  0  0  0  0
  -14.8196  -13.2423   38.7194 H   0  0  0  0  0  0  0  0  0  0  0  0
  -14.2667  -14.3775   39.9493 H   0  0  0  0  0  0  0  0  0  0  0  0
  -14.5794  -16.1966   38.6092 H   0  0  0  0  0  0  0  0  0  0  0  0
  -15.5780  -15.1598   37.5876 H   0  0  0  0  0  0  0  0  0  0  0  0
   -9.1554   -9.0483   36.0319 H   0  0  0  0  0  0  0  0  0  0  0  0
   -7.1509   -8.3761   35.1194 H   0  0  0  0  0  0  0  0  0  0  0  0
   -7.9636   -8.5655   33.3253 H   0  0  0  0  0  0  0  0  0  0  0  0
   -4.7251   -6.6095   35.2381 H   0  0  0  0  0  0  0  0  0  0  0  0
   -3.1717   -5.6242   33.2879 H   0  0  0  0  0  0  0  0  0  0  0  0
  1  2  1  0
  2  3  1  0
  3  4  1  0
  4  5  1  0
  4  6  1  0
  6  7  1  0
  7  8  2  0
  7  9  1  0
  9 10  1  0
 10 11  2  0
 11 12  1  0
 12 13  1  0
 13 14  1  0
 14 15  1  0
 15 16  1  0
 16 17  1  0
 12 18  1  0
  2 19  1  0
 19 20  1  0
 20 21  1  0
 21 22  1  0
 22 23  2  0
 23 24  1  0
 24 25  1  0
 18  9  2  0
 25 21  2  0
 17 13  1  0
  1 26  1  0
  1 27  1  0
  1 28  1  0
  2 29  1  0
  3 30  1  0
  3 31  1  0
  4 32  1  0
  5 33  1  0
  5 34  1  0
  5 35  1  0
  6 36  1  0
 10 37  1  0
 11 38  1  0
 13 39  1  0
 14 40  1  0
 14 41  1  0
 15 42  1  0
 15 43  1  0
 16 44  1  0
 16 45  1  0
 17 46  1  0
 17 47  1  0
 19 48  1  0
 20 49  1  0
 20 50  1  0
 22 51  1  0
 23 52  1  0
M  END
>  <Energy>  (397) 
400.851788815291

>  <compound_id>  (397) 
17272

>  <target_id>  (397) 
1

>  <reference_id>  (397) 
96

>  <inspiration_ids>  (397) 
[96, 59]

>  <energy_score>  (397) 
308.2899494677885

>  <distance_score>  (397) 
10.478459343259567

>  <path>  (397) 
/opt/xchem-fragalysis-2/maxwin/BulkDock/SCRATCH/511014/C17272-P96/C17272-P96.minimised.mol

>  <scratch_subdir>  (397) 
/opt/xchem-fragalysis-2/maxwin/BulkDock/SCRATCH/511014/C17272-P96

>  <fragmenstein_runtime>  (397) 
24.661752939224243

>  <fragmenstein_outcome>  (397) 
too moved

>  <fragmenstein_mode>  (397) 
expansion

>  <fragmenstein_error>  (397) 


$$$$
C17272-P59
     RDKit          3D

 52 54  0  0  0  0  0  0  0  0999 V2000
   -5.3751   -2.6215   32.6357 C   0  0  0  0  0  0  0  0  0  0  0  0
   -4.9805   -4.1459   32.0159 C   0  0  0  0  0  0  0  0  0  0  0  0
   -6.0373   -6.0700   31.5992 C   0  0  0  0  0  0  0  0  0  0  0  0
   -5.8857   -8.2768   31.3268 C   0  0  0  0  0  0  0  0  0  0  0  0
   -7.1855   -7.2472   32.6683 C   0  0  0  0  0  0  0  0  0  0  0  0
   -6.5599  -10.1849   30.4582 N   0  0  0  0  0  0  0  0  0  0  0  0
   -6.8863  -12.0316   31.2988 C   0  0  0  0  0  0  0  0  0  0  0  0
   -6.8347  -12.2769   32.4966 O   0  0  0  0  0  0  0  0  0  0  0  0
   -7.1631  -13.7790   30.0042 C   0  0  0  0  0  0  0  0  0  0  0  0
   -6.0687  -15.2270   29.6510 C   0  0  0  0  0  0  0  0  0  0  0  0
   -6.5447  -16.3266   28.4704 C   0  0  0  0  0  0  0  0  0  0  0  0
   -8.3200  -16.6032   28.2502 N   0  0  0  0  0  0  0  0  0  0  0  0
   -9.4156  -18.4412   28.2150 C   0  0  0  0  0  0  0  0  0  0  0  0
   -9.7537  -20.4904   27.7668 C   0  0  0  0  0  0  0  0  0  0  0  0
  -10.3930  -22.0370   28.3143 C   0  0  0  0  0  0  0  0  0  0  0  0
  -11.2456  -21.4810   29.2917 C   0  0  0  0  0  0  0  0  0  0  0  0
  -10.6426  -19.9501   29.4065 C   0  0  0  0  0  0  0  0  0  0  0  0
   -8.1290  -14.6123   28.5638 N   0  0  0  0  0  0  0  0  0  0  0  0
   -3.3189   -3.5809   31.7065 N   0  0  0  0  0  0  0  0  0  0  0  0
   -2.5120   -2.8402   32.7218 C   0  0  0  0  0  0  0  0  0  0  0  0
   -1.7071   -1.7993   31.9806 C   0  0  0  0  0  0  0  0  0  0  0  0
   -0.7399   -2.0056   30.9647 C   0  0  0  0  0  0  0  0  0  0  0  0
   -0.3866   -0.7428   30.5723 C   0  0  0  0  0  0  0  0  0  0  0  0
   -1.0732    0.1662   31.3049 O   0  0  0  0  0  0  0  0  0  0  0  0
   -1.9177   -0.4903   32.1858 N   0  0  0  0  0  0  0  0  0  0  0  0
   -5.1708   -2.5335   33.7107 H   0  0  0  0  0  0  0  0  0  0  0  0
   -6.3629   -2.2404   32.3493 H   0  0  0  0  0  0  0  0  0  0  0  0
   -4.7431   -1.8354   32.2083 H   0  0  0  0  0  0  0  0  0  0  0  0
   -5.1098   -3.6585   31.0024 H   0  0  0  0  0  0  0  0  0  0  0  0
   -6.0141   -5.6265   30.4907 H   0  0  0  0  0  0  0  0  0  0  0  0
   -6.8945   -6.2093   31.0543 H   0  0  0  0  0  0  0  0  0  0  0  0
   -4.9165   -8.5449   31.8613 H   0  0  0  0  0  0  0  0  0  0  0  0
   -6.9882   -6.6840   33.6005 H   0  0  0  0  0  0  0  0  0  0  0  0
   -8.0003   -6.7694   32.1951 H   0  0  0  0  0  0  0  0  0  0  0  0
   -8.0307   -7.6871   33.2021 H   0  0  0  0  0  0  0  0  0  0  0  0
   -6.7414  -10.2152   29.4529 H   0  0  0  0  0  0  0  0  0  0  0  0
   -5.1987  -15.4134   30.2748 H   0  0  0  0  0  0  0  0  0  0  0  0
   -6.0463  -17.2280   28.1858 H   0  0  0  0  0  0  0  0  0  0  0  0
   -8.4483  -18.6105   28.6054 H   0  0  0  0  0  0  0  0  0  0  0  0
  -10.0826  -20.4497   26.7784 H   0  0  0  0  0  0  0  0  0  0  0  0
  -10.8408  -20.8059   27.3993 H   0  0  0  0  0  0  0  0  0  0  0  0
   -9.6298  -22.7881   28.3803 H   0  0  0  0  0  0  0  0  0  0  0  0
  -11.0557  -22.5506   27.5791 H   0  0  0  0  0  0  0  0  0  0  0  0
  -11.2628  -21.9801   30.2460 H   0  0  0  0  0  0  0  0  0  0  0  0
  -12.2908  -21.5174   28.9475 H   0  0  0  0  0  0  0  0  0  0  0  0
  -10.7341  -20.1596   30.5082 H   0  0  0  0  0  0  0  0  0  0  0  0
  -11.8623  -19.8373   29.2538 H   0  0  0  0  0  0  0  0  0  0  0  0
   -3.4576   -2.8696   30.9716 H   0  0  0  0  0  0  0  0  0  0  0  0
   -1.7975   -3.5302   33.1843 H   0  0  0  0  0  0  0  0  0  0  0  0
   -3.0820   -2.3498   33.5120 H   0  0  0  0  0  0  0  0  0  0  0  0
   -0.3843   -2.9416   30.5622 H   0  0  0  0  0  0  0  0  0  0  0  0
    0.2879   -0.3374   29.8326 H   0  0  0  0  0  0  0  0  0  0  0  0
  1  2  1  0
  2  3  1  0
  3  4  1  0
  4  5  1  0
  4  6  1  0
  6  7  1  0
  7  8  2  0
  7  9  1  0
  9 10  1  0
 10 11  2  0
 11 12  1  0
 12 13  1  0
 13 14  1  0
 14 15  1  0
 15 16  1  0
 16 17  1  0
 12 18  1  0
  2 19  1  0
 19 20  1  0
 20 21  1  0
 21 22  1  0
 22 23  2  0
 23 24  1  0
 24 25  1  0
 18  9  2  0
 25 21  2  0
 17 13  1  0
  1 26  1  0
  1 27  1  0
  1 28  1  0
  2 29  1  0
  3 30  1  0
  3 31  1  0
  4 32  1  0
  5 33  1  0
  5 34  1  0
  5 35  1  0
  6 36  1  0
 10 37  1  0
 11 38  1  0
 13 39  1  0
 14 40  1  0
 14 41  1  0
 15 42  1  0
 15 43  1  0
 16 44  1  0
 16 45  1  0
 17 46  1  0
 17 47  1  0
 19 48  1  0
 20 49  1  0
 20 50  1  0
 22 51  1  0
 23 52  1  0
M  END
>  <Energy>  (398) 
2654.8806793405934

>  <compound_id>  (398) 
17272

>  <target_id>  (398) 
1

>  <reference_id>  (398) 
59

>  <inspiration_ids>  (398) 
[96, 59]

>  <energy_score>  (398) 
2562.318839993123

>  <distance_score>  (398) 
6.612894268923296

>  <path>  (398) 
/opt/xchem-fragalysis-2/maxwin/BulkDock/SCRATCH/511014/C17272-P59/C17272-P59.minimised.mol

>  <scratch_subdir>  (398) 
/opt/xchem-fragalysis-2/maxwin/BulkDock/SCRATCH/511014/C17272-P59

>  <fragmenstein_runtime>  (398) 
26.46200394630432

>  <fragmenstein_outcome>  (398) 
too moved

>  <fragmenstein_mode>  (398) 
expansion

>  <fragmenstein_error>  (398) 


$$$$
C17276-P96
     RDKit          3D

 50 52  0  0  0  0  0  0  0  0999 V2000
   -8.5280  -11.9765   26.8497 C   0  0  0  0  0  0  0  0  0  0  0  0
   -9.9504  -12.0546   27.9954 N   0  0  0  0  0  0  0  0  0  0  0  0
   -9.8224   -9.6909   28.3689 C   0  0  0  0  0  0  0  0  0  0  0  0
   -8.2152   -8.6868   28.7130 C   0  0  0  0  0  0  0  0  0  0  0  0
   -9.2026   -9.0394   30.2303 O   0  0  0  0  0  0  0  0  0  0  0  0
   -6.4435   -9.0273   29.5730 C   0  0  0  0  0  0  0  0  0  0  0  0
   -5.6534   -7.6816   30.3913 N   0  0  0  0  0  0  0  0  0  0  0  0
   -4.3606   -7.0195   30.0518 C   0  0  0  0  0  0  0  0  0  0  0  0
   -3.5689   -6.1927   31.0495 C   0  0  0  0  0  0  0  0  0  0  0  0
   -2.4203   -5.4252   30.6958 C   0  0  0  0  0  0  0  0  0  0  0  0
   -2.1517   -4.6730   31.8034 C   0  0  0  0  0  0  0  0  0  0  0  0
   -3.0456   -4.9713   32.7740 O   0  0  0  0  0  0  0  0  0  0  0  0
   -3.9393   -5.9337   32.3138 N   0  0  0  0  0  0  0  0  0  0  0  0
  -11.4051  -12.8833   27.0689 C   0  0  0  0  0  0  0  0  0  0  0  0
  -12.2963  -12.4079   26.4583 O   0  0  0  0  0  0  0  0  0  0  0  0
  -11.6373  -14.4174   27.1815 C   0  0  0  0  0  0  0  0  0  0  0  0
  -10.6765  -15.1719   26.4437 C   0  0  0  0  0  0  0  0  0  0  0  0
  -10.7764  -16.4264   27.0867 C   0  0  0  0  0  0  0  0  0  0  0  0
  -11.7455  -16.8932   28.5576 N   0  0  0  0  0  0  0  0  0  0  0  0
  -11.9576  -18.8178   29.0957 C   0  0  0  0  0  0  0  0  0  0  0  0
  -11.3471  -19.7062   30.6847 C   0  0  0  0  0  0  0  0  0  0  0  0
  -11.1116  -21.1925   30.4391 C   0  0  0  0  0  0  0  0  0  0  0  0
  -10.5799  -21.2743   29.0460 C   0  0  0  0  0  0  0  0  0  0  0  0
  -11.5503  -20.4224   28.2975 C   0  0  0  0  0  0  0  0  0  0  0  0
  -12.5758  -15.2279   28.3953 N   0  0  0  0  0  0  0  0  0  0  0  0
   -8.6340  -13.0579   26.6329 H   0  0  0  0  0  0  0  0  0  0  0  0
   -7.5418  -12.1350   27.3171 H   0  0  0  0  0  0  0  0  0  0  0  0
   -8.6791  -11.7542   25.8134 H   0  0  0  0  0  0  0  0  0  0  0  0
  -10.6332   -9.1848   28.8673 H   0  0  0  0  0  0  0  0  0  0  0  0
  -10.2175   -8.7803   27.5647 H   0  0  0  0  0  0  0  0  0  0  0  0
   -8.2265   -7.8718   27.9727 H   0  0  0  0  0  0  0  0  0  0  0  0
   -9.9289   -8.4219   30.4737 H   0  0  0  0  0  0  0  0  0  0  0  0
   -5.7218   -9.6656   29.0230 H   0  0  0  0  0  0  0  0  0  0  0  0
   -6.7727   -9.6904   30.3541 H   0  0  0  0  0  0  0  0  0  0  0  0
   -5.9619   -7.5748   31.3540 H   0  0  0  0  0  0  0  0  0  0  0  0
   -3.6452   -7.7306   29.6361 H   0  0  0  0  0  0  0  0  0  0  0  0
   -4.5842   -6.2781   29.2964 H   0  0  0  0  0  0  0  0  0  0  0  0
   -1.8857   -5.3961   29.7575 H   0  0  0  0  0  0  0  0  0  0  0  0
   -1.3991   -3.9395   32.0503 H   0  0  0  0  0  0  0  0  0  0  0  0
   -9.9119  -14.8233   25.7604 H   0  0  0  0  0  0  0  0  0  0  0  0
  -11.5456  -17.0243   27.4074 H   0  0  0  0  0  0  0  0  0  0  0  0
  -10.8432  -18.8869   29.1896 H   0  0  0  0  0  0  0  0  0  0  0  0
  -11.9620  -19.7245   31.5903 H   0  0  0  0  0  0  0  0  0  0  0  0
  -10.3748  -19.2942   30.9955 H   0  0  0  0  0  0  0  0  0  0  0  0
  -10.4381  -21.6238   31.1852 H   0  0  0  0  0  0  0  0  0  0  0  0
  -12.0603  -21.7372   30.5305 H   0  0  0  0  0  0  0  0  0  0  0  0
   -9.6175  -20.8422   28.8323 H   0  0  0  0  0  0  0  0  0  0  0  0
  -10.5648  -22.3087   28.6851 H   0  0  0  0  0  0  0  0  0  0  0  0
  -12.3824  -21.1037   28.4516 H   0  0  0  0  0  0  0  0  0  0  0  0
  -11.1984  -20.4246   27.2698 H   0  0  0  0  0  0  0  0  0  0  0  0
  1  2  1  0
  2  3  1  0
  3  4  1  0
  4  5  1  0
  4  6  1  0
  6  7  1  0
  7  8  1  0
  8  9  1  0
  9 10  1  0
 10 11  2  0
 11 12  1  0
 12 13  1  0
  2 14  1  0
 14 15  2  0
 14 16  1  0
 16 17  1  0
 17 18  2  0
 18 19  1  0
 19 20  1  0
 20 21  1  0
 21 22  1  0
 22 23  1  0
 23 24  1  0
 19 25  1  0
 13  9  2  0
 25 16  2  0
 24 20  1  0
  1 26  1  0
  1 27  1  0
  1 28  1  0
  3 29  1  0
  3 30  1  0
  4 31  1  0
  5 32  1  0
  6 33  1  0
  6 34  1  0
  7 35  1  0
  8 36  1  0
  8 37  1  0
 10 38  1  0
 11 39  1  0
 17 40  1  0
 18 41  1  0
 20 42  1  0
 21 43  1  0
 21 44  1  0
 22 45  1  0
 22 46  1  0
 23 47  1  0
 23 48  1  0
 24 49  1  0
 24 50  1  0
M  END
>  <Energy>  (399) 
1531.4005351045823

>  <compound_id>  (399) 
17276

>  <target_id>  (399) 
1

>  <reference_id>  (399) 
96

>  <inspiration_ids>  (399) 
[96, 59]

>  <energy_score>  (399) 
1380.314434116489

>  <distance_score>  (399) 
7.991585494717958

>  <path>  (399) 
/opt/xchem-fragalysis-2/maxwin/BulkDock/SCRATCH/511014/C17276-P96/C17276-P96.minimised.mol

>  <scratch_subdir>  (399) 
/opt/xchem-fragalysis-2/maxwin/BulkDock/SCRATCH/511014/C17276-P96

>  <fragmenstein_runtime>  (399) 
24.13924527168274

>  <fragmenstein_outcome>  (399) 
too moved

>  <fragmenstein_mode>  (399) 
expansion

>  <fragmenstein_error>  (399) 


$$$$
C17276-P59
     RDKit          3D

 50 52  0  0  0  0  0  0  0  0999 V2000
   -5.4613  -12.4738   29.4819 C   0  0  0  0  0  0  0  0  0  0  0  0
   -6.6020  -12.1812   28.5033 N   0  0  0  0  0  0  0  0  0  0  0  0
   -6.6456  -10.3648   29.7045 C   0  0  0  0  0  0  0  0  0  0  0  0
   -5.7629   -8.6723   30.8920 C   0  0  0  0  0  0  0  0  0  0  0  0
   -4.6847   -8.7528   31.7791 O   0  0  0  0  0  0  0  0  0  0  0  0
   -6.3943   -6.7732   31.7703 C   0  0  0  0  0  0  0  0  0  0  0  0
   -5.6194   -5.0623   32.6115 N   0  0  0  0  0  0  0  0  0  0  0  0
   -4.9898   -3.3993   32.1554 C   0  0  0  0  0  0  0  0  0  0  0  0
   -3.7095   -2.7109   32.5868 C   0  0  0  0  0  0  0  0  0  0  0  0
   -2.4572   -2.6723   31.9057 C   0  0  0  0  0  0  0  0  0  0  0  0
   -1.7309   -1.7169   32.5636 C   0  0  0  0  0  0  0  0  0  0  0  0
   -2.4878   -1.1770   33.5454 O   0  0  0  0  0  0  0  0  0  0  0  0
   -3.7402   -1.7640   33.5412 N   0  0  0  0  0  0  0  0  0  0  0  0
   -7.9155  -13.7846   28.3487 C   0  0  0  0  0  0  0  0  0  0  0  0
   -8.7544  -13.6645   29.1356 O   0  0  0  0  0  0  0  0  0  0  0  0
   -8.4091  -15.3864   27.2483 C   0  0  0  0  0  0  0  0  0  0  0  0
   -8.0386  -16.4280   28.1433 C   0  0  0  0  0  0  0  0  0  0  0  0
   -8.4515  -17.7989   28.4201 C   0  0  0  0  0  0  0  0  0  0  0  0
   -9.4701  -18.3272   27.7606 N   0  0  0  0  0  0  0  0  0  0  0  0
   -9.8697  -20.3543   27.6616 C   0  0  0  0  0  0  0  0  0  0  0  0
  -11.6613  -21.1164   27.2998 C   0  0  0  0  0  0  0  0  0  0  0  0
  -12.2988  -21.0883   28.7160 C   0  0  0  0  0  0  0  0  0  0  0  0
  -11.2207  -21.6063   29.5522 C   0  0  0  0  0  0  0  0  0  0  0  0
  -10.2463  -21.9800   28.4867 C   0  0  0  0  0  0  0  0  0  0  0  0
   -9.6179  -16.6350   26.9876 N   0  0  0  0  0  0  0  0  0  0  0  0
   -5.2781  -11.5834   29.9787 H   0  0  0  0  0  0  0  0  0  0  0  0
   -4.4348  -12.3039   29.1378 H   0  0  0  0  0  0  0  0  0  0  0  0
   -5.7387  -13.3961   30.0219 H   0  0  0  0  0  0  0  0  0  0  0  0
   -6.9159   -9.5996   28.9217 H   0  0  0  0  0  0  0  0  0  0  0  0
   -7.6434  -10.2852   30.1511 H   0  0  0  0  0  0  0  0  0  0  0  0
   -6.6121   -9.1812   30.8268 H   0  0  0  0  0  0  0  0  0  0  0  0
   -4.0271   -8.1253   31.4625 H   0  0  0  0  0  0  0  0  0  0  0  0
   -6.6362   -6.2201   30.8997 H   0  0  0  0  0  0  0  0  0  0  0  0
   -7.2147   -6.9252   32.5037 H   0  0  0  0  0  0  0  0  0  0  0  0
   -5.9043   -5.1022   33.5963 H   0  0  0  0  0  0  0  0  0  0  0  0
   -5.7658   -2.6638   32.4233 H   0  0  0  0  0  0  0  0  0  0  0  0
   -4.9834   -3.3239   31.0754 H   0  0  0  0  0  0  0  0  0  0  0  0
   -2.1369   -3.2179   31.0331 H   0  0  0  0  0  0  0  0  0  0  0  0
   -0.7389   -1.3048   32.4540 H   0  0  0  0  0  0  0  0  0  0  0  0
   -7.0951  -16.1947   28.5850 H   0  0  0  0  0  0  0  0  0  0  0  0
   -8.0966  -18.4059   29.1879 H   0  0  0  0  0  0  0  0  0  0  0  0
   -9.9063  -20.0202   28.6538 H   0  0  0  0  0  0  0  0  0  0  0  0
  -11.6835  -22.1396   26.8886 H   0  0  0  0  0  0  0  0  0  0  0  0
  -12.2132  -20.7310   26.4481 H   0  0  0  0  0  0  0  0  0  0  0  0
  -12.6514  -20.1258   29.0714 H   0  0  0  0  0  0  0  0  0  0  0  0
  -13.1143  -21.6738   28.9544 H   0  0  0  0  0  0  0  0  0  0  0  0
  -10.9562  -20.8580   30.2782 H   0  0  0  0  0  0  0  0  0  0  0  0
  -11.4977  -22.4151   30.1611 H   0  0  0  0  0  0  0  0  0  0  0  0
  -10.6396  -22.8672   27.9522 H   0  0  0  0  0  0  0  0  0  0  0  0
   -9.2642  -22.4445   28.4312 H   0  0  0  0  0  0  0  0  0  0  0  0
  1  2  1  0
  2  3  1  0
  3  4  1  0
  4  5  1  0
  4  6  1  0
  6  7  1  0
  7  8  1  0
  8  9  1  0
  9 10  1  0
 10 11  2  0
 11 12  1  0
 12 13  1  0
  2 14  1  0
 14 15  2  0
 14 16  1  0
 16 17  1  0
 17 18  2  0
 18 19  1  0
 19 20  1  0
 20 21  1  0
 21 22  1  0
 22 23  1  0
 23 24  1  0
 19 25  1  0
 13  9  2  0
 25 16  2  0
 24 20  1  0
  1 26  1  0
  1 27  1  0
  1 28  1  0
  3 29  1  0
  3 30  1  0
  4 31  1  0
  5 32  1  0
  6 33  1  0
  6 34  1  0
  7 35  1  0
  8 36  1  0
  8 37  1  0
 10 38  1  0
 11 39  1  0
 17 40  1  0
 18 41  1  0
 20 42  1  0
 21 43  1  0
 21 44  1  0
 22 45  1  0
 22 46  1  0
 23 47  1  0
 23 48  1  0
 24 49  1  0
 24 50  1  0
M  END
>  <Energy>  (400) 
1924.6014600143831

>  <compound_id>  (400) 
17276

>  <target_id>  (400) 
1

>  <reference_id>  (400) 
59

>  <inspiration_ids>  (400) 
[96, 59]

>  <energy_score>  (400) 
1773.5153590262737

>  <distance_score>  (400) 
6.531171303365801

>  <path>  (400) 
/opt/xchem-fragalysis-2/maxwin/BulkDock/SCRATCH/511014/C17276-P59/C17276-P59.minimised.mol

>  <scratch_subdir>  (400) 
/opt/xchem-fragalysis-2/maxwin/BulkDock/SCRATCH/511014/C17276-P59

>  <fragmenstein_runtime>  (400) 
24.70002794265747

>  <fragmenstein_outcome>  (400) 
too moved

>  <fragmenstein_mode>  (400) 
expansion

>  <fragmenstein_error>  (400) 


$$$$
C17278-P96
     RDKit          3D

 44 45  0  0  0  0  0  0  0  0999 V2000
   -2.8207   -5.0183   31.9871 C   0  0  0  0  0  0  0  0  0  0  0  0
   -2.5960   -5.8652   30.7304 C   0  0  0  0  0  0  0  0  0  0  0  0
   -3.7510   -6.4721   29.8550 C   0  0  0  0  0  0  0  0  0  0  0  0
   -5.0665   -7.3260   30.2853 C   0  0  0  0  0  0  0  0  0  0  0  0
   -5.2320   -6.8469   31.7947 C   0  0  0  0  0  0  0  0  0  0  0  0
   -6.0117   -8.9277   30.1262 N   0  0  0  0  0  0  0  0  0  0  0  0
   -5.6994  -10.2551   29.2723 C   0  0  0  0  0  0  0  0  0  0  0  0
   -4.8153  -10.4782   28.4625 O   0  0  0  0  0  0  0  0  0  0  0  0
   -6.8430  -11.7958   29.7153 C   0  0  0  0  0  0  0  0  0  0  0  0
   -7.7254  -12.8201   31.0347 N   0  0  0  0  0  0  0  0  0  0  0  0
   -7.0076  -13.8398   32.1527 C   0  0  0  0  0  0  0  0  0  0  0  0
   -7.9681  -14.4187   32.9107 C   0  0  0  0  0  0  0  0  0  0  0  0
   -9.1343  -13.8715   32.3564 C   0  0  0  0  0  0  0  0  0  0  0  0
   -9.0017  -12.9164   31.3841 N   0  0  0  0  0  0  0  0  0  0  0  0
   -1.7447   -4.9930   29.8947 N   0  0  0  0  0  0  0  0  0  0  0  0
   -1.8220   -4.6540   28.4962 C   0  0  0  0  0  0  0  0  0  0  0  0
   -2.5510   -5.0563   27.6329 O   0  0  0  0  0  0  0  0  0  0  0  0
   -0.8490   -3.5181   28.1583 C   0  0  0  0  0  0  0  0  0  0  0  0
   -1.1580   -2.2760   28.9294 C   0  0  0  0  0  0  0  0  0  0  0  0
   -0.4025   -1.6999   29.9793 C   0  0  0  0  0  0  0  0  0  0  0  0
   -1.1084   -0.5803   30.3281 C   0  0  0  0  0  0  0  0  0  0  0  0
   -2.2113   -0.4795   29.5491 O   0  0  0  0  0  0  0  0  0  0  0  0
   -2.2505   -1.5452   28.6672 N   0  0  0  0  0  0  0  0  0  0  0  0
   -3.3008   -5.5411   32.8086 H   0  0  0  0  0  0  0  0  0  0  0  0
   -3.3416   -4.0923   31.7653 H   0  0  0  0  0  0  0  0  0  0  0  0
   -1.8524   -4.6946   32.3884 H   0  0  0  0  0  0  0  0  0  0  0  0
   -1.9734   -6.7103   31.0277 H   0  0  0  0  0  0  0  0  0  0  0  0
   -4.1307   -5.6748   29.2378 H   0  0  0  0  0  0  0  0  0  0  0  0
   -3.1117   -7.1227   29.2412 H   0  0  0  0  0  0  0  0  0  0  0  0
   -4.2987   -8.0425   30.0701 H   0  0  0  0  0  0  0  0  0  0  0  0
   -5.2783   -5.8099   32.0358 H   0  0  0  0  0  0  0  0  0  0  0  0
   -6.1666   -7.1928   32.1407 H   0  0  0  0  0  0  0  0  0  0  0  0
   -4.4874   -7.1388   32.5449 H   0  0  0  0  0  0  0  0  0  0  0  0
   -6.8634   -9.0536   30.6380 H   0  0  0  0  0  0  0  0  0  0  0  0
   -7.1747  -12.1868   28.7779 H   0  0  0  0  0  0  0  0  0  0  0  0
   -7.2918  -11.0261   30.3332 H   0  0  0  0  0  0  0  0  0  0  0  0
   -5.9450  -13.9936   32.0310 H   0  0  0  0  0  0  0  0  0  0  0  0
   -7.8510  -15.1244   33.7154 H   0  0  0  0  0  0  0  0  0  0  0  0
  -10.1200  -13.9377   32.7867 H   0  0  0  0  0  0  0  0  0  0  0  0
   -0.9446   -4.5143   30.3091 H   0  0  0  0  0  0  0  0  0  0  0  0
    0.1777   -3.8272   28.3442 H   0  0  0  0  0  0  0  0  0  0  0  0
   -0.9223   -3.3080   27.0840 H   0  0  0  0  0  0  0  0  0  0  0  0
    0.5211   -2.0564   30.4105 H   0  0  0  0  0  0  0  0  0  0  0  0
   -0.9792    0.2044   31.0581 H   0  0  0  0  0  0  0  0  0  0  0  0
  1  2  1  0
  2  3  1  0
  3  4  1  0
  4  5  1  0
  4  6  1  0
  6  7  1  0
  7  8  2  0
  7  9  1  0
  9 10  1  0
 10 11  1  0
 11 12  2  0
 12 13  1  0
 13 14  2  0
  2 15  1  0
 15 16  1  0
 16 17  2  0
 16 18  1  0
 18 19  1  0
 19 20  1  0
 20 21  2  0
 21 22  1  0
 22 23  1  0
 14 10  1  0
 23 19  2  0
  1 24  1  0
  1 25  1  0
  1 26  1  0
  2 27  1  0
  3 28  1  0
  3 29  1  0
  4 30  1  0
  5 31  1  0
  5 32  1  0
  5 33  1  0
  6 34  1  0
  9 35  1  0
  9 36  1  0
 11 37  1  0
 12 38  1  0
 13 39  1  0
 15 40  1  0
 18 41  1  0
 18 42  1  0
 20 43  1  0
 21 44  1  0
M  END
>  <Energy>  (401) 
376.45481104045979

>  <compound_id>  (401) 
17278

>  <target_id>  (401) 
1

>  <reference_id>  (401) 
96

>  <inspiration_ids>  (401) 
[96, 59]

>  <energy_score>  (401) 
325.4265596219875

>  <distance_score>  (401) 
7.7512036816408125

>  <path>  (401) 
/opt/xchem-fragalysis-2/maxwin/BulkDock/SCRATCH/511014/C17278-P96/C17278-P96.minimised.mol

>  <scratch_subdir>  (401) 
/opt/xchem-fragalysis-2/maxwin/BulkDock/SCRATCH/511014/C17278-P96

>  <fragmenstein_runtime>  (401) 
18.53219509124756

>  <fragmenstein_outcome>  (401) 
too moved

>  <fragmenstein_mode>  (401) 
expansion

>  <fragmenstein_error>  (401) 


$$$$
C17278-P59
     RDKit          3D

 44 45  0  0  0  0  0  0  0  0999 V2000
   -5.4747   -3.4330   35.0101 C   0  0  0  0  0  0  0  0  0  0  0  0
   -7.0099   -4.7486   35.2924 C   0  0  0  0  0  0  0  0  0  0  0  0
   -8.0798   -6.4432   34.6042 C   0  0  0  0  0  0  0  0  0  0  0  0
   -9.1687   -7.8414   33.4496 C   0  0  0  0  0  0  0  0  0  0  0  0
  -10.7393   -7.3696   33.3960 C   0  0  0  0  0  0  0  0  0  0  0  0
   -9.7901   -9.7848   33.1805 N   0  0  0  0  0  0  0  0  0  0  0  0
   -8.7970  -11.5112   32.7640 C   0  0  0  0  0  0  0  0  0  0  0  0
   -7.5956  -11.5894   32.5084 O   0  0  0  0  0  0  0  0  0  0  0  0
   -9.5986  -13.4191   32.9014 C   0  0  0  0  0  0  0  0  0  0  0  0
  -10.5795  -14.8122   33.5521 N   0  0  0  0  0  0  0  0  0  0  0  0
  -10.2923  -16.0365   34.1974 C   0  0  0  0  0  0  0  0  0  0  0  0
  -11.4503  -16.4954   34.8419 C   0  0  0  0  0  0  0  0  0  0  0  0
  -12.4845  -15.7362   34.2923 C   0  0  0  0  0  0  0  0  0  0  0  0
  -12.0263  -14.8415   33.3811 N   0  0  0  0  0  0  0  0  0  0  0  0
   -7.5994   -2.9288   35.4266 N   0  0  0  0  0  0  0  0  0  0  0  0
   -7.8076   -2.0683   36.5851 C   0  0  0  0  0  0  0  0  0  0  0  0
   -7.7412   -2.3077   37.7591 O   0  0  0  0  0  0  0  0  0  0  0  0
   -8.0490   -0.6275   36.0667 C   0  0  0  0  0  0  0  0  0  0  0  0
   -6.8159   -0.1179   35.3484 C   0  0  0  0  0  0  0  0  0  0  0  0
   -5.6682    0.5098   35.8928 C   0  0  0  0  0  0  0  0  0  0  0  0
   -4.8071    0.6422   34.8342 C   0  0  0  0  0  0  0  0  0  0  0  0
   -5.3858    0.1439   33.7169 O   0  0  0  0  0  0  0  0  0  0  0  0
   -6.6486   -0.3356   34.0310 N   0  0  0  0  0  0  0  0  0  0  0  0
   -4.7566   -3.1895   35.7888 H   0  0  0  0  0  0  0  0  0  0  0  0
   -5.7989   -2.3907   34.9454 H   0  0  0  0  0  0  0  0  0  0  0  0
   -4.9899   -3.3779   34.0102 H   0  0  0  0  0  0  0  0  0  0  0  0
   -6.3837   -5.1761   34.5300 H   0  0  0  0  0  0  0  0  0  0  0  0
   -7.2391   -6.7089   33.9811 H   0  0  0  0  0  0  0  0  0  0  0  0
   -8.2012   -6.8692   35.5988 H   0  0  0  0  0  0  0  0  0  0  0  0
   -9.5187   -8.0044   34.4236 H   0  0  0  0  0  0  0  0  0  0  0  0
  -11.0080   -6.7188   34.2324 H   0  0  0  0  0  0  0  0  0  0  0  0
  -11.4209   -8.2087   33.5793 H   0  0  0  0  0  0  0  0  0  0  0  0
  -11.0443   -7.0013   32.4307 H   0  0  0  0  0  0  0  0  0  0  0  0
  -10.7417   -9.9875   33.4383 H   0  0  0  0  0  0  0  0  0  0  0  0
   -9.6059  -14.0886   32.0475 H   0  0  0  0  0  0  0  0  0  0  0  0
   -8.6764  -13.8690   33.1980 H   0  0  0  0  0  0  0  0  0  0  0  0
   -9.3589  -16.5369   34.2974 H   0  0  0  0  0  0  0  0  0  0  0  0
  -11.5150  -17.3423   35.5069 H   0  0  0  0  0  0  0  0  0  0  0  0
  -13.5517  -15.8301   34.4358 H   0  0  0  0  0  0  0  0  0  0  0  0
   -7.6583   -2.3592   34.5696 H   0  0  0  0  0  0  0  0  0  0  0  0
   -8.9209   -0.6233   35.4066 H   0  0  0  0  0  0  0  0  0  0  0  0
   -8.2769    0.0178   36.9222 H   0  0  0  0  0  0  0  0  0  0  0  0
   -5.4867    0.7912   36.9195 H   0  0  0  0  0  0  0  0  0  0  0  0
   -3.8077    1.0331   34.7186 H   0  0  0  0  0  0  0  0  0  0  0  0
  1  2  1  0
  2  3  1  0
  3  4  1  0
  4  5  1  0
  4  6  1  0
  6  7  1  0
  7  8  2  0
  7  9  1  0
  9 10  1  0
 10 11  1  0
 11 12  2  0
 12 13  1  0
 13 14  2  0
  2 15  1  0
 15 16  1  0
 16 17  2  0
 16 18  1  0
 18 19  1  0
 19 20  1  0
 20 21  2  0
 21 22  1  0
 22 23  1  0
 14 10  1  0
 23 19  2  0
  1 24  1  0
  1 25  1  0
  1 26  1  0
  2 27  1  0
  3 28  1  0
  3 29  1  0
  4 30  1  0
  5 31  1  0
  5 32  1  0
  5 33  1  0
  6 34  1  0
  9 35  1  0
  9 36  1  0
 11 37  1  0
 12 38  1  0
 13 39  1  0
 15 40  1  0
 18 41  1  0
 18 42  1  0
 20 43  1  0
 21 44  1  0
M  END
>  <Energy>  (402) 
1026.6346206011788

>  <compound_id>  (402) 
17278

>  <target_id>  (402) 
1

>  <reference_id>  (402) 
59

>  <inspiration_ids>  (402) 
[96, 59]

>  <energy_score>  (402) 
975.6063691826937

>  <distance_score>  (402) 
7.774397547859461

>  <path>  (402) 
/opt/xchem-fragalysis-2/maxwin/BulkDock/SCRATCH/511014/C17278-P59/C17278-P59.minimised.mol

>  <scratch_subdir>  (402) 
/opt/xchem-fragalysis-2/maxwin/BulkDock/SCRATCH/511014/C17278-P59

>  <fragmenstein_runtime>  (402) 
34.42096304893494

>  <fragmenstein_outcome>  (402) 
too moved

>  <fragmenstein_mode>  (402) 
expansion

>  <fragmenstein_error>  (402) 


$$$$
C17281-P96
     RDKit          3D

 34 36  0  0  0  0  0  0  0  0999 V2000
   -6.4625   -9.3891   29.9791 O   0  0  0  0  0  0  0  0  0  0  0  0
   -5.3539   -9.4003   29.4834 C   0  0  0  0  0  0  0  0  0  0  0  0
   -5.1416  -10.7322   28.6743 O   0  0  0  0  0  0  0  0  0  0  0  0
   -6.1347  -12.2812   28.8620 C   0  0  0  0  0  0  0  0  0  0  0  0
   -5.2973  -14.0388   28.8710 C   0  0  0  0  0  0  0  0  0  0  0  0
   -4.0833  -14.6273   28.3919 C   0  0  0  0  0  0  0  0  0  0  0  0
   -4.0221  -15.9572   28.8489 C   0  0  0  0  0  0  0  0  0  0  0  0
   -4.9658  -16.1786   29.7414 N   0  0  0  0  0  0  0  0  0  0  0  0
   -5.5682  -14.9546   29.9235 O   0  0  0  0  0  0  0  0  0  0  0  0
   -4.4399   -7.7880   29.9009 C   0  0  0  0  0  0  0  0  0  0  0  0
   -4.9705   -6.8949   30.9225 C   0  0  0  0  0  0  0  0  0  0  0  0
   -3.8559   -6.5249   31.7655 C   0  0  0  0  0  0  0  0  0  0  0  0
   -2.7334   -6.9876   31.1995 N   0  0  0  0  0  0  0  0  0  0  0  0
   -3.1066   -7.0048   29.8698 N   0  0  0  0  0  0  0  0  0  0  0  0
   -2.9057   -5.5566   29.3742 C   0  0  0  0  0  0  0  0  0  0  0  0
   -2.0736   -5.2570   28.1109 C   0  0  0  0  0  0  0  0  0  0  0  0
   -1.3717   -3.9070   28.2956 C   0  0  0  0  0  0  0  0  0  0  0  0
   -1.9273   -3.3092   29.5599 C   0  0  0  0  0  0  0  0  0  0  0  0
   -2.2879   -4.5268   30.3825 C   0  0  0  0  0  0  0  0  0  0  0  0
   -6.7237  -12.2571   27.9346 H   0  0  0  0  0  0  0  0  0  0  0  0
   -6.8108  -12.1363   29.6926 H   0  0  0  0  0  0  0  0  0  0  0  0
   -3.3083  -14.1854   27.7909 H   0  0  0  0  0  0  0  0  0  0  0  0
   -3.3047  -16.7327   28.6240 H   0  0  0  0  0  0  0  0  0  0  0  0
   -5.9246   -6.9821   31.3950 H   0  0  0  0  0  0  0  0  0  0  0  0
   -3.8559   -6.1502   32.7821 H   0  0  0  0  0  0  0  0  0  0  0  0
   -3.9154   -5.2633   29.1577 H   0  0  0  0  0  0  0  0  0  0  0  0
   -1.3930   -6.0680   27.8755 H   0  0  0  0  0  0  0  0  0  0  0  0
   -2.7141   -5.1395   27.2314 H   0  0  0  0  0  0  0  0  0  0  0  0
   -0.2952   -4.0280   28.4047 H   0  0  0  0  0  0  0  0  0  0  0  0
   -1.5241   -3.2475   27.4348 H   0  0  0  0  0  0  0  0  0  0  0  0
   -2.8051   -2.7007   29.3377 H   0  0  0  0  0  0  0  0  0  0  0  0
   -1.2023   -2.6673   30.0694 H   0  0  0  0  0  0  0  0  0  0  0  0
   -2.9610   -4.2315   31.1894 H   0  0  0  0  0  0  0  0  0  0  0  0
   -1.3794   -4.9262   30.8435 H   0  0  0  0  0  0  0  0  0  0  0  0
  1  2  2  0
  2  3  1  0
  3  4  1  0
  4  5  1  0
  5  6  2  0
  6  7  1  0
  7  8  2  0
  8  9  1  0
  2 10  1  0
 10 11  2  0
 11 12  1  0
 12 13  2  0
 13 14  1  0
 14 15  1  0
 15 16  1  0
 16 17  1  0
 17 18  1  0
 18 19  1  0
  9  5  1  0
 14 10  1  0
 19 15  1  0
  4 20  1  0
  4 21  1  0
  6 22  1  0
  7 23  1  0
 11 24  1  0
 12 25  1  0
 15 26  1  0
 16 27  1  0
 16 28  1  0
 17 29  1  0
 17 30  1  0
 18 31  1  0
 18 32  1  0
 19 33  1  0
 19 34  1  0
M  END
>  <Energy>  (403) 
301.21969140947772

>  <compound_id>  (403) 
17281

>  <target_id>  (403) 
1

>  <reference_id>  (403) 
96

>  <inspiration_ids>  (403) 
[96, 59]

>  <energy_score>  (403) 
268.53042698331524

>  <distance_score>  (403) 
8.826073368296822

>  <path>  (403) 
/opt/xchem-fragalysis-2/maxwin/BulkDock/SCRATCH/511014/C17281-P96/C17281-P96.minimised.mol

>  <scratch_subdir>  (403) 
/opt/xchem-fragalysis-2/maxwin/BulkDock/SCRATCH/511014/C17281-P96

>  <fragmenstein_runtime>  (403) 
9.325626611709595

>  <fragmenstein_outcome>  (403) 
too moved

>  <fragmenstein_mode>  (403) 
expansion

>  <fragmenstein_error>  (403) 


$$$$
C17281-P59
     RDKit          3D

 34 36  0  0  0  0  0  0  0  0999 V2000
   -8.2044   -6.3206   35.1920 O   0  0  0  0  0  0  0  0  0  0  0  0
   -7.0402   -6.0651   34.8876 C   0  0  0  0  0  0  0  0  0  0  0  0
   -6.0503   -7.4585   34.3856 O   0  0  0  0  0  0  0  0  0  0  0  0
   -5.4305   -9.2819   33.8447 C   0  0  0  0  0  0  0  0  0  0  0  0
   -6.1621  -11.0781   33.2610 C   0  0  0  0  0  0  0  0  0  0  0  0
   -7.5223  -12.0670   33.4083 C   0  0  0  0  0  0  0  0  0  0  0  0
   -7.6314  -13.1985   32.7117 C   0  0  0  0  0  0  0  0  0  0  0  0
   -6.7899  -13.1725   31.7756 N   0  0  0  0  0  0  0  0  0  0  0  0
   -6.6488  -11.6968   31.8377 O   0  0  0  0  0  0  0  0  0  0  0  0
   -6.5210   -4.2726   35.1688 C   0  0  0  0  0  0  0  0  0  0  0  0
   -7.3494   -2.7737   35.5002 C   0  0  0  0  0  0  0  0  0  0  0  0
   -6.4991   -1.7383   36.0087 C   0  0  0  0  0  0  0  0  0  0  0  0
   -5.2584   -2.2010   36.0803 N   0  0  0  0  0  0  0  0  0  0  0  0
   -5.2166   -3.0902   34.9853 N   0  0  0  0  0  0  0  0  0  0  0  0
   -4.7877   -2.2015   33.8450 C   0  0  0  0  0  0  0  0  0  0  0  0
   -4.4911   -2.7091   32.4661 C   0  0  0  0  0  0  0  0  0  0  0  0
   -3.0643   -2.3375   32.0988 C   0  0  0  0  0  0  0  0  0  0  0  0
   -2.8199   -1.0793   32.8955 C   0  0  0  0  0  0  0  0  0  0  0  0
   -3.4995   -1.3968   34.2141 C   0  0  0  0  0  0  0  0  0  0  0  0
   -4.8493   -9.4967   34.7650 H   0  0  0  0  0  0  0  0  0  0  0  0
   -4.8332   -8.8523   33.0467 H   0  0  0  0  0  0  0  0  0  0  0  0
   -8.1956  -11.8571   34.2508 H   0  0  0  0  0  0  0  0  0  0  0  0
   -8.4152  -13.9235   32.6444 H   0  0  0  0  0  0  0  0  0  0  0  0
   -8.4150   -2.6054   35.6404 H   0  0  0  0  0  0  0  0  0  0  0  0
   -6.7697   -0.7885   36.4533 H   0  0  0  0  0  0  0  0  0  0  0  0
   -5.6044   -1.4739   33.7216 H   0  0  0  0  0  0  0  0  0  0  0  0
   -5.1977   -2.2429   31.8005 H   0  0  0  0  0  0  0  0  0  0  0  0
   -4.7212   -3.7365   32.3749 H   0  0  0  0  0  0  0  0  0  0  0  0
   -2.3584   -3.1116   32.4173 H   0  0  0  0  0  0  0  0  0  0  0  0
   -2.9294   -2.1849   31.0253 H   0  0  0  0  0  0  0  0  0  0  0  0
   -1.7567   -0.8542   33.0152 H   0  0  0  0  0  0  0  0  0  0  0  0
   -3.3015   -0.2269   32.4120 H   0  0  0  0  0  0  0  0  0  0  0  0
   -3.7295   -0.4781   34.7649 H   0  0  0  0  0  0  0  0  0  0  0  0
   -2.8252   -1.9991   34.8364 H   0  0  0  0  0  0  0  0  0  0  0  0
  1  2  2  0
  2  3  1  0
  3  4  1  0
  4  5  1  0
  5  6  2  0
  6  7  1  0
  7  8  2  0
  8  9  1  0
  2 10  1  0
 10 11  2  0
 11 12  1  0
 12 13  2  0
 13 14  1  0
 14 15  1  0
 15 16  1  0
 16 17  1  0
 17 18  1  0
 18 19  1  0
  9  5  1  0
 14 10  1  0
 19 15  1  0
  4 20  1  0
  4 21  1  0
  6 22  1  0
  7 23  1  0
 11 24  1  0
 12 25  1  0
 15 26  1  0
 16 27  1  0
 16 28  1  0
 17 29  1  0
 17 30  1  0
 18 31  1  0
 18 32  1  0
 19 33  1  0
 19 34  1  0
M  END
>  <Energy>  (404) 
629.09708879406924

>  <compound_id>  (404) 
17281

>  <target_id>  (404) 
1

>  <reference_id>  (404) 
59

>  <inspiration_ids>  (404) 
[96, 59]

>  <energy_score>  (404) 
596.4078243678921

>  <distance_score>  (404) 
8.986912480944602

>  <path>  (404) 
/opt/xchem-fragalysis-2/maxwin/BulkDock/SCRATCH/511014/C17281-P59/C17281-P59.minimised.mol

>  <scratch_subdir>  (404) 
/opt/xchem-fragalysis-2/maxwin/BulkDock/SCRATCH/511014/C17281-P59

>  <fragmenstein_runtime>  (404) 
11.535927534103394

>  <fragmenstein_outcome>  (404) 
too moved

>  <fragmenstein_mode>  (404) 
expansion

>  <fragmenstein_error>  (404) 


$$$$
C17282-P96
     RDKit          3D

 35 37  0  0  0  0  0  0  0  0999 V2000
  -10.3917  -23.1870   27.4576 O   0  0  0  0  0  0  0  0  0  0  0  0
  -10.9705  -24.0749   28.0158 C   0  0  0  0  0  0  0  0  0  0  0  0
  -11.1185  -25.4016   27.2843 C   0  0  0  0  0  0  0  0  0  0  0  0
  -12.4179  -26.0912   27.5321 C   0  0  0  0  0  0  0  0  0  0  0  0
  -13.5542  -26.1666   26.6980 C   0  0  0  0  0  0  0  0  0  0  0  0
  -14.4491  -26.9496   27.3871 C   0  0  0  0  0  0  0  0  0  0  0  0
  -13.8347  -27.2927   28.5573 N   0  0  0  0  0  0  0  0  0  0  0  0
  -14.3893  -28.1244   29.6158 C   0  0  0  0  0  0  0  0  0  0  0  0
  -14.7588  -27.2979   30.8602 C   0  0  0  0  0  0  0  0  0  0  0  0
  -14.1313  -28.0300   32.0403 C   0  0  0  0  0  0  0  0  0  0  0  0
  -12.9121  -28.7127   31.4469 C   0  0  0  0  0  0  0  0  0  0  0  0
  -13.4214  -29.2159   30.1033 C   0  0  0  0  0  0  0  0  0  0  0  0
  -12.6076  -26.7456   28.6891 N   0  0  0  0  0  0  0  0  0  0  0  0
  -11.5315  -24.1454   29.3334 N   0  0  0  0  0  0  0  0  0  0  0  0
  -11.6504  -23.2067   30.2954 C   0  0  0  0  0  0  0  0  0  0  0  0
  -12.1820  -23.2777   31.5536 C   0  0  0  0  0  0  0  0  0  0  0  0
  -12.0373  -21.9718   32.0482 C   0  0  0  0  0  0  0  0  0  0  0  0
  -11.4586  -21.1558   31.1657 N   0  0  0  0  0  0  0  0  0  0  0  0
  -11.2157  -21.9446   30.0489 O   0  0  0  0  0  0  0  0  0  0  0  0
  -10.2805  -26.0377   27.5918 H   0  0  0  0  0  0  0  0  0  0  0  0
  -11.0101  -25.2093   26.2106 H   0  0  0  0  0  0  0  0  0  0  0  0
  -13.6942  -25.7187   25.7252 H   0  0  0  0  0  0  0  0  0  0  0  0
  -15.4479  -27.2851   27.1446 H   0  0  0  0  0  0  0  0  0  0  0  0
  -15.2850  -28.6005   29.1979 H   0  0  0  0  0  0  0  0  0  0  0  0
  -14.3664  -26.2750   30.8057 H   0  0  0  0  0  0  0  0  0  0  0  0
  -15.8446  -27.2192   30.9808 H   0  0  0  0  0  0  0  0  0  0  0  0
  -14.8302  -28.7786   32.4318 H   0  0  0  0  0  0  0  0  0  0  0  0
  -13.8709  -27.3506   32.8551 H   0  0  0  0  0  0  0  0  0  0  0  0
  -12.1009  -27.9895   31.3055 H   0  0  0  0  0  0  0  0  0  0  0  0
  -12.5418  -29.5230   32.0808 H   0  0  0  0  0  0  0  0  0  0  0  0
  -12.6044  -29.4342   29.4081 H   0  0  0  0  0  0  0  0  0  0  0  0
  -13.9791  -30.1481   30.2594 H   0  0  0  0  0  0  0  0  0  0  0  0
  -11.8764  -25.0909   29.4978 H   0  0  0  0  0  0  0  0  0  0  0  0
  -12.6196  -24.1347   32.0378 H   0  0  0  0  0  0  0  0  0  0  0  0
  -12.3298  -21.5739   33.0096 H   0  0  0  0  0  0  0  0  0  0  0  0
  1  2  2  0
  2  3  1  0
  3  4  1  0
  4  5  1  0
  5  6  2  0
  6  7  1  0
  7  8  1  0
  8  9  1  0
  9 10  1  0
 10 11  1  0
 11 12  1  0
  7 13  1  0
  2 14  1  0
 14 15  1  0
 15 16  2  0
 16 17  1  0
 17 18  2  0
 18 19  1  0
 13  4  2  0
 19 15  1  0
 12  8  1  0
  3 20  1  0
  3 21  1  0
  5 22  1  0
  6 23  1  0
  8 24  1  0
  9 25  1  0
  9 26  1  0
 10 27  1  0
 10 28  1  0
 11 29  1  0
 11 30  1  0
 12 31  1  0
 12 32  1  0
 14 33  1  0
 16 34  1  0
 17 35  1  0
M  END
>  <Energy>  (405) 
14.145853520276908

>  <compound_id>  (405) 
17282

>  <target_id>  (405) 
1

>  <reference_id>  (405) 
96

>  <inspiration_ids>  (405) 
[96, 59]

>  <energy_score>  (405) 
-44.44318855043019

>  <distance_score>  (405) 
4.366970996849179

>  <path>  (405) 
/opt/xchem-fragalysis-2/maxwin/BulkDock/SCRATCH/511014/C17282-P96/C17282-P96.minimised.mol

>  <scratch_subdir>  (405) 
/opt/xchem-fragalysis-2/maxwin/BulkDock/SCRATCH/511014/C17282-P96

>  <fragmenstein_runtime>  (405) 
14.649292945861816

>  <fragmenstein_outcome>  (405) 
too moved

>  <fragmenstein_mode>  (405) 
expansion

>  <fragmenstein_error>  (405) 


$$$$
C17282-P59
     RDKit          3D

 35 37  0  0  0  0  0  0  0  0999 V2000
  -14.6833  -27.5029   24.8410 O   0  0  0  0  0  0  0  0  0  0  0  0
  -15.1461  -26.5106   25.2585 C   0  0  0  0  0  0  0  0  0  0  0  0
  -16.6586  -26.3395   25.4165 C   0  0  0  0  0  0  0  0  0  0  0  0
  -17.3096  -25.4266   24.4435 C   0  0  0  0  0  0  0  0  0  0  0  0
  -17.5606  -24.0403   24.5708 C   0  0  0  0  0  0  0  0  0  0  0  0
  -18.2785  -23.6985   23.4504 C   0  0  0  0  0  0  0  0  0  0  0  0
  -18.4310  -24.8499   22.7311 N   0  0  0  0  0  0  0  0  0  0  0  0
  -19.1330  -25.0272   21.4704 C   0  0  0  0  0  0  0  0  0  0  0  0
  -18.7385  -24.0084   20.3856 C   0  0  0  0  0  0  0  0  0  0  0  0
  -19.9840  -23.1619   20.1558 C   0  0  0  0  0  0  0  0  0  0  0  0
  -21.1231  -24.1346   20.4057 C   0  0  0  0  0  0  0  0  0  0  0  0
  -20.6579  -24.9141   21.6273 C   0  0  0  0  0  0  0  0  0  0  0  0
  -17.8560  -25.9144   23.3237 N   0  0  0  0  0  0  0  0  0  0  0  0
  -14.4525  -25.2331   25.8303 N   0  0  0  0  0  0  0  0  0  0  0  0
  -13.1402  -24.9768   26.0751 C   0  0  0  0  0  0  0  0  0  0  0  0
  -12.3991  -23.8639   26.4154 C   0  0  0  0  0  0  0  0  0  0  0  0
  -11.0678  -24.3433   26.4811 C   0  0  0  0  0  0  0  0  0  0  0  0
  -10.9848  -25.6321   26.1389 N   0  0  0  0  0  0  0  0  0  0  0  0
  -12.2932  -26.0411   25.9717 O   0  0  0  0  0  0  0  0  0  0  0  0
  -16.8712  -26.0172   26.4411 H   0  0  0  0  0  0  0  0  0  0  0  0
  -17.1058  -27.3398   25.3372 H   0  0  0  0  0  0  0  0  0  0  0  0
  -17.2886  -23.3800   25.3787 H   0  0  0  0  0  0  0  0  0  0  0  0
  -18.7014  -22.7593   23.1225 H   0  0  0  0  0  0  0  0  0  0  0  0
  -18.8747  -26.0313   21.1085 H   0  0  0  0  0  0  0  0  0  0  0  0
  -17.8696  -23.3928   20.6384 H   0  0  0  0  0  0  0  0  0  0  0  0
  -18.4963  -24.5467   19.4604 H   0  0  0  0  0  0  0  0  0  0  0  0
  -20.0142  -22.7345   19.1495 H   0  0  0  0  0  0  0  0  0  0  0  0
  -20.0218  -22.3389   20.8789 H   0  0  0  0  0  0  0  0  0  0  0  0
  -21.2420  -24.8089   19.5493 H   0  0  0  0  0  0  0  0  0  0  0  0
  -22.0763  -23.6262   20.5761 H   0  0  0  0  0  0  0  0  0  0  0  0
  -21.1338  -25.8988   21.6809 H   0  0  0  0  0  0  0  0  0  0  0  0
  -20.9341  -24.3701   22.5388 H   0  0  0  0  0  0  0  0  0  0  0  0
  -15.1511  -24.5274   26.0261 H   0  0  0  0  0  0  0  0  0  0  0  0
  -12.7353  -22.8560   26.5982 H   0  0  0  0  0  0  0  0  0  0  0  0
  -10.1682  -23.8558   26.8094 H   0  0  0  0  0  0  0  0  0  0  0  0
  1  2  2  0
  2  3  1  0
  3  4  1  0
  4  5  1  0
  5  6  2  0
  6  7  1  0
  7  8  1  0
  8  9  1  0
  9 10  1  0
 10 11  1  0
 11 12  1  0
  7 13  1  0
  2 14  1  0
 14 15  1  0
 15 16  2  0
 16 17  1  0
 17 18  2  0
 18 19  1  0
 13  4  2  0
 19 15  1  0
 12  8  1  0
  3 20  1  0
  3 21  1  0
  5 22  1  0
  6 23  1  0
  8 24  1  0
  9 25  1  0
  9 26  1  0
 10 27  1  0
 10 28  1  0
 11 29  1  0
 11 30  1  0
 12 31  1  0
 12 32  1  0
 14 33  1  0
 16 34  1  0
 17 35  1  0
M  END
>  <Energy>  (406) 
37.265379384957996

>  <compound_id>  (406) 
17282

>  <target_id>  (406) 
1

>  <reference_id>  (406) 
59

>  <inspiration_ids>  (406) 
[96, 59]

>  <energy_score>  (406) 
-29.397445768522402

>  <distance_score>  (406) 
6.170915861485437

>  <path>  (406) 
/opt/xchem-fragalysis-2/maxwin/BulkDock/SCRATCH/511014/C17282-P59/C17282-P59.minimised.mol

>  <scratch_subdir>  (406) 
/opt/xchem-fragalysis-2/maxwin/BulkDock/SCRATCH/511014/C17282-P59

>  <fragmenstein_runtime>  (406) 
8.877167224884033

>  <fragmenstein_outcome>  (406) 
too moved

>  <fragmenstein_mode>  (406) 
expansion

>  <fragmenstein_error>  (406) 


$$$$
C17283-P96
     RDKit          3D

 40 42  0  0  0  0  0  0  0  0999 V2000
   -7.8317  -12.3672   25.9940 C   0  0  0  0  0  0  0  0  0  0  0  0
   -7.4783  -12.9324   27.3499 C   0  0  0  0  0  0  0  0  0  0  0  0
   -8.1987  -14.8194   27.1750 C   0  0  0  0  0  0  0  0  0  0  0  0
   -8.1434  -16.6460   27.6858 C   0  0  0  0  0  0  0  0  0  0  0  0
   -8.2622  -17.9549   28.1145 C   0  0  0  0  0  0  0  0  0  0  0  0
   -9.5984  -19.2142   28.9128 C   0  0  0  0  0  0  0  0  0  0  0  0
   -9.1835  -19.4250   27.6078 N   0  0  0  0  0  0  0  0  0  0  0  0
   -9.2818  -17.4389   27.3172 O   0  0  0  0  0  0  0  0  0  0  0  0
   -6.2694  -11.8298   28.3342 O   0  0  0  0  0  0  0  0  0  0  0  0
   -5.0696  -10.5377   27.9551 C   0  0  0  0  0  0  0  0  0  0  0  0
   -4.8120  -10.4936   26.7460 O   0  0  0  0  0  0  0  0  0  0  0  0
   -4.1246   -9.4766   28.7422 C   0  0  0  0  0  0  0  0  0  0  0  0
   -2.7777   -9.1928   28.1562 C   0  0  0  0  0  0  0  0  0  0  0  0
   -2.2783   -7.9846   28.4937 N   0  0  0  0  0  0  0  0  0  0  0  0
   -3.0000   -7.4719   29.5321 N   0  0  0  0  0  0  0  0  0  0  0  0
   -2.6112   -6.2747   30.2514 C   0  0  0  0  0  0  0  0  0  0  0  0
   -2.5575   -4.9722   29.4901 C   0  0  0  0  0  0  0  0  0  0  0  0
   -2.2633   -3.9380   30.5680 C   0  0  0  0  0  0  0  0  0  0  0  0
   -2.6458   -4.5718   31.9110 C   0  0  0  0  0  0  0  0  0  0  0  0
   -3.1802   -5.9778   31.6283 C   0  0  0  0  0  0  0  0  0  0  0  0
   -4.1617   -8.1523   29.6219 C   0  0  0  0  0  0  0  0  0  0  0  0
   -7.7448  -13.0485   25.1516 H   0  0  0  0  0  0  0  0  0  0  0  0
   -8.9068  -12.2342   26.0460 H   0  0  0  0  0  0  0  0  0  0  0  0
   -7.2716  -11.5122   25.6904 H   0  0  0  0  0  0  0  0  0  0  0  0
   -8.3600  -12.5781   27.8746 H   0  0  0  0  0  0  0  0  0  0  0  0
   -7.1861  -15.0820   27.3295 H   0  0  0  0  0  0  0  0  0  0  0  0
   -8.6427  -14.8905   26.1693 H   0  0  0  0  0  0  0  0  0  0  0  0
   -7.3879  -18.6447   27.7106 H   0  0  0  0  0  0  0  0  0  0  0  0
  -10.5727  -19.3258   29.3777 H   0  0  0  0  0  0  0  0  0  0  0  0
   -2.2926   -9.7722   27.3775 H   0  0  0  0  0  0  0  0  0  0  0  0
   -1.5881   -6.3999   30.5291 H   0  0  0  0  0  0  0  0  0  0  0  0
   -1.7814   -4.9700   28.7169 H   0  0  0  0  0  0  0  0  0  0  0  0
   -3.4937   -4.8011   28.9865 H   0  0  0  0  0  0  0  0  0  0  0  0
   -2.7830   -2.9980   30.3777 H   0  0  0  0  0  0  0  0  0  0  0  0
   -1.1943   -3.6969   30.5757 H   0  0  0  0  0  0  0  0  0  0  0  0
   -1.7508   -4.6265   32.5334 H   0  0  0  0  0  0  0  0  0  0  0  0
   -3.3529   -3.9669   32.4714 H   0  0  0  0  0  0  0  0  0  0  0  0
   -4.2622   -6.0614   31.6876 H   0  0  0  0  0  0  0  0  0  0  0  0
   -2.8052   -6.6896   32.3679 H   0  0  0  0  0  0  0  0  0  0  0  0
   -4.9971   -7.7065   30.1750 H   0  0  0  0  0  0  0  0  0  0  0  0
  1  2  1  0
  2  3  1  0
  3  4  1  0
  4  5  2  0
  5  6  1  0
  6  7  2  0
  7  8  1  0
  2  9  1  0
  9 10  1  0
 10 11  2  0
 10 12  1  0
 12 13  1  0
 13 14  2  0
 14 15  1  0
 15 16  1  0
 16 17  1  0
 17 18  1  0
 18 19  1  0
 19 20  1  0
 15 21  1  0
  8  4  1  0
 21 12  2  0
 20 16  1  0
  1 22  1  0
  1 23  1  0
  1 24  1  0
  2 25  1  0
  3 26  1  0
  3 27  1  0
  5 28  1  0
  6 29  1  0
 13 30  1  0
 16 31  1  0
 17 32  1  0
 17 33  1  0
 18 34  1  0
 18 35  1  0
 19 36  1  0
 19 37  1  0
 20 38  1  0
 20 39  1  0
 21 40  1  0
M  END
>  <Energy>  (407) 
838.98644311095995

>  <compound_id>  (407) 
17283

>  <target_id>  (407) 
1

>  <reference_id>  (407) 
96

>  <inspiration_ids>  (407) 
[96, 59]

>  <energy_score>  (407) 
779.9117308206942

>  <distance_score>  (407) 
7.870340588944362

>  <path>  (407) 
/opt/xchem-fragalysis-2/maxwin/BulkDock/SCRATCH/511014/C17283-P96/C17283-P96.minimised.mol

>  <scratch_subdir>  (407) 
/opt/xchem-fragalysis-2/maxwin/BulkDock/SCRATCH/511014/C17283-P96

>  <fragmenstein_runtime>  (407) 
16.054572820663452

>  <fragmenstein_outcome>  (407) 
too moved

>  <fragmenstein_mode>  (407) 
expansion

>  <fragmenstein_error>  (407) 


$$$$
C17283-P59
     RDKit          3D

 40 42  0  0  0  0  0  0  0  0999 V2000
   -6.4512  -14.1466   29.9960 C   0  0  0  0  0  0  0  0  0  0  0  0
   -7.4393  -13.9029   28.6636 C   0  0  0  0  0  0  0  0  0  0  0  0
   -8.2054  -15.8990   28.0724 C   0  0  0  0  0  0  0  0  0  0  0  0
   -8.9671  -17.8744   28.3843 C   0  0  0  0  0  0  0  0  0  0  0  0
   -9.0536  -19.5885   28.3550 C   0  0  0  0  0  0  0  0  0  0  0  0
  -10.5432  -20.7692   28.7686 C   0  0  0  0  0  0  0  0  0  0  0  0
  -11.1040  -20.0540   29.7337 N   0  0  0  0  0  0  0  0  0  0  0  0
  -10.6747  -18.3034   29.2144 O   0  0  0  0  0  0  0  0  0  0  0  0
   -6.4935  -12.0314   28.6186 O   0  0  0  0  0  0  0  0  0  0  0  0
   -6.7430  -10.1816   29.3238 C   0  0  0  0  0  0  0  0  0  0  0  0
   -7.6479  -10.1465   30.1242 O   0  0  0  0  0  0  0  0  0  0  0  0
   -5.9048   -8.3862   29.1981 C   0  0  0  0  0  0  0  0  0  0  0  0
   -5.6172   -8.4244   31.1394 C   0  0  0  0  0  0  0  0  0  0  0  0
   -6.4019   -6.9222   31.7085 N   0  0  0  0  0  0  0  0  0  0  0  0
   -5.9762   -5.5185   30.5937 N   0  0  0  0  0  0  0  0  0  0  0  0
   -4.9467   -3.8694   31.2597 C   0  0  0  0  0  0  0  0  0  0  0  0
   -3.2954   -3.1203   31.0999 C   0  0  0  0  0  0  0  0  0  0  0  0
   -3.2932   -1.7576   31.7772 C   0  0  0  0  0  0  0  0  0  0  0  0
   -4.5759   -1.6180   32.5360 C   0  0  0  0  0  0  0  0  0  0  0  0
   -5.6779   -2.4698   31.8801 C   0  0  0  0  0  0  0  0  0  0  0  0
   -6.0734   -6.5785   29.1846 C   0  0  0  0  0  0  0  0  0  0  0  0
   -5.9776  -15.1347   30.0797 H   0  0  0  0  0  0  0  0  0  0  0  0
   -5.6782  -13.4161   30.0135 H   0  0  0  0  0  0  0  0  0  0  0  0
   -6.9878  -13.9864   30.9413 H   0  0  0  0  0  0  0  0  0  0  0  0
   -7.2571  -13.6951   27.6101 H   0  0  0  0  0  0  0  0  0  0  0  0
   -7.3220  -16.4710   28.1836 H   0  0  0  0  0  0  0  0  0  0  0  0
   -8.6205  -15.7497   27.0579 H   0  0  0  0  0  0  0  0  0  0  0  0
   -8.2709  -20.3724   27.9814 H   0  0  0  0  0  0  0  0  0  0  0  0
  -10.6373  -21.8290   28.5433 H   0  0  0  0  0  0  0  0  0  0  0  0
   -4.6532   -8.6088   31.6372 H   0  0  0  0  0  0  0  0  0  0  0  0
   -4.9637   -4.1762   32.3237 H   0  0  0  0  0  0  0  0  0  0  0  0
   -2.4677   -3.7053   31.5109 H   0  0  0  0  0  0  0  0  0  0  0  0
   -2.9949   -2.9098   30.0619 H   0  0  0  0  0  0  0  0  0  0  0  0
   -3.1962   -0.9604   31.0315 H   0  0  0  0  0  0  0  0  0  0  0  0
   -2.4299   -1.6510   32.4437 H   0  0  0  0  0  0  0  0  0  0  0  0
   -4.4073   -1.9838   33.5587 H   0  0  0  0  0  0  0  0  0  0  0  0
   -4.8787   -0.5716   32.6401 H   0  0  0  0  0  0  0  0  0  0  0  0
   -6.5161   -2.1304   31.2739 H   0  0  0  0  0  0  0  0  0  0  0  0
   -6.2786   -2.4450   32.7653 H   0  0  0  0  0  0  0  0  0  0  0  0
   -6.1056   -5.8093   28.3817 H   0  0  0  0  0  0  0  0  0  0  0  0
  1  2  1  0
  2  3  1  0
  3  4  1  0
  4  5  2  0
  5  6  1  0
  6  7  2  0
  7  8  1  0
  2  9  1  0
  9 10  1  0
 10 11  2  0
 10 12  1  0
 12 13  1  0
 13 14  2  0
 14 15  1  0
 15 16  1  0
 16 17  1  0
 17 18  1  0
 18 19  1  0
 19 20  1  0
 15 21  1  0
  8  4  1  0
 21 12  2  0
 20 16  1  0
  1 22  1  0
  1 23  1  0
  1 24  1  0
  2 25  1  0
  3 26  1  0
  3 27  1  0
  5 28  1  0
  6 29  1  0
 13 30  1  0
 16 31  1  0
 17 32  1  0
 17 33  1  0
 18 34  1  0
 18 35  1  0
 19 36  1  0
 19 37  1  0
 20 38  1  0
 20 39  1  0
 21 40  1  0
M  END
>  <Energy>  (408) 
1717.1839568528681

>  <compound_id>  (408) 
17283

>  <target_id>  (408) 
1

>  <reference_id>  (408) 
59

>  <inspiration_ids>  (408) 
[96, 59]

>  <energy_score>  (408) 
1658.109244562612

>  <distance_score>  (408) 
6.452715171943344

>  <path>  (408) 
/opt/xchem-fragalysis-2/maxwin/BulkDock/SCRATCH/511014/C17283-P59/C17283-P59.minimised.mol

>  <scratch_subdir>  (408) 
/opt/xchem-fragalysis-2/maxwin/BulkDock/SCRATCH/511014/C17283-P59

>  <fragmenstein_runtime>  (408) 
21.68118667602539

>  <fragmenstein_outcome>  (408) 
too moved

>  <fragmenstein_mode>  (408) 
expansion

>  <fragmenstein_error>  (408) 


$$$$
C17284-P96
     RDKit          3D

 42 44  0  0  0  0  0  0  0  0999 V2000
   -5.2063  -15.1334   30.2075 C   0  0  0  0  0  0  0  0  0  0  0  0
   -5.8881  -13.8755   30.9986 C   0  0  0  0  0  0  0  0  0  0  0  0
   -6.8759  -14.2851   32.3287 C   0  0  0  0  0  0  0  0  0  0  0  0
   -6.6702  -15.6927   32.8768 C   0  0  0  0  0  0  0  0  0  0  0  0
   -5.6197  -16.5787   32.9995 C   0  0  0  0  0  0  0  0  0  0  0  0
   -6.1815  -17.7323   33.5804 C   0  0  0  0  0  0  0  0  0  0  0  0
   -7.4751  -17.5700   33.8492 N   0  0  0  0  0  0  0  0  0  0  0  0
   -7.7724  -16.2779   33.4488 O   0  0  0  0  0  0  0  0  0  0  0  0
   -6.2900  -12.3919   29.5733 N   0  0  0  0  0  0  0  0  0  0  0  0
   -5.3659  -10.2890   29.1252 S   0  0  0  0  0  0  0  0  0  0  0  0
   -6.4114   -9.4567   29.6737 O   0  0  0  0  0  0  0  0  0  0  0  0
   -4.7175  -10.4317   27.8587 O   0  0  0  0  0  0  0  0  0  0  0  0
   -4.2816   -8.3733   29.6512 C   0  0  0  0  0  0  0  0  0  0  0  0
   -4.9153   -7.2801   30.4442 C   0  0  0  0  0  0  0  0  0  0  0  0
   -4.0207   -6.3817   30.8456 N   0  0  0  0  0  0  0  0  0  0  0  0
   -3.0645   -6.4676   29.9236 N   0  0  0  0  0  0  0  0  0  0  0  0
   -2.5586   -5.1641   29.5367 C   0  0  0  0  0  0  0  0  0  0  0  0
   -1.6001   -4.9545   28.3934 C   0  0  0  0  0  0  0  0  0  0  0  0
   -1.1963   -3.4847   28.5016 C   0  0  0  0  0  0  0  0  0  0  0  0
   -1.4175   -3.0824   29.9601 C   0  0  0  0  0  0  0  0  0  0  0  0
   -1.9709   -4.3160   30.6664 C   0  0  0  0  0  0  0  0  0  0  0  0
   -3.0547   -7.7331   29.3288 C   0  0  0  0  0  0  0  0  0  0  0  0
   -5.1696  -14.9557   29.1300 H   0  0  0  0  0  0  0  0  0  0  0  0
   -5.7138  -16.0613   30.4103 H   0  0  0  0  0  0  0  0  0  0  0  0
   -4.1694  -15.2697   30.5431 H   0  0  0  0  0  0  0  0  0  0  0  0
   -5.0571  -13.7108   31.7504 H   0  0  0  0  0  0  0  0  0  0  0  0
   -7.9331  -14.0617   32.1609 H   0  0  0  0  0  0  0  0  0  0  0  0
   -6.5941  -13.6181   33.1570 H   0  0  0  0  0  0  0  0  0  0  0  0
   -4.5922  -16.4283   32.7063 H   0  0  0  0  0  0  0  0  0  0  0  0
   -5.7074  -18.6711   33.8302 H   0  0  0  0  0  0  0  0  0  0  0  0
   -7.2009  -12.0377   29.8820 H   0  0  0  0  0  0  0  0  0  0  0  0
   -5.8278   -7.3441   30.9972 H   0  0  0  0  0  0  0  0  0  0  0  0
   -3.4535   -4.6526   29.2045 H   0  0  0  0  0  0  0  0  0  0  0  0
   -0.7313   -5.5742   28.5350 H   0  0  0  0  0  0  0  0  0  0  0  0
   -2.0258   -5.1842   27.4130 H   0  0  0  0  0  0  0  0  0  0  0  0
   -1.8236   -2.8667   27.8501 H   0  0  0  0  0  0  0  0  0  0  0  0
   -0.1586   -3.3295   28.1902 H   0  0  0  0  0  0  0  0  0  0  0  0
   -2.1392   -2.2591   30.0101 H   0  0  0  0  0  0  0  0  0  0  0  0
   -0.4940   -2.7332   30.4327 H   0  0  0  0  0  0  0  0  0  0  0  0
   -1.1746   -4.8465   31.1873 H   0  0  0  0  0  0  0  0  0  0  0  0
   -2.7115   -4.0381   31.4228 H   0  0  0  0  0  0  0  0  0  0  0  0
   -2.3133   -8.0579   28.6093 H   0  0  0  0  0  0  0  0  0  0  0  0
  1  2  1  0
  2  3  1  0
  3  4  1  0
  4  5  2  0
  5  6  1  0
  6  7  2  0
  7  8  1  0
  2  9  1  0
  9 10  1  0
 10 11  2  0
 10 12  2  0
 10 13  1  0
 13 14  1  0
 14 15  2  0
 15 16  1  0
 16 17  1  0
 17 18  1  0
 18 19  1  0
 19 20  1  0
 20 21  1  0
 16 22  1  0
  8  4  1  0
 22 13  2  0
 21 17  1  0
  1 23  1  0
  1 24  1  0
  1 25  1  0
  2 26  1  0
  3 27  1  0
  3 28  1  0
  5 29  1  0
  6 30  1  0
  9 31  1  0
 14 32  1  0
 17 33  1  0
 18 34  1  0
 18 35  1  0
 19 36  1  0
 19 37  1  0
 20 38  1  0
 20 39  1  0
 21 40  1  0
 21 41  1  0
 22 42  1  0
M  END
>  <Energy>  (409) 
386.46434227170494

>  <compound_id>  (409) 
17284

>  <target_id>  (409) 
1

>  <reference_id>  (409) 
96

>  <inspiration_ids>  (409) 
[96, 59]

>  <energy_score>  (409) 
356.2902187468894

>  <distance_score>  (409) 
8.273619418878118

>  <path>  (409) 
/opt/xchem-fragalysis-2/maxwin/BulkDock/SCRATCH/511014/C17284-P96/C17284-P96.minimised.mol

>  <scratch_subdir>  (409) 
/opt/xchem-fragalysis-2/maxwin/BulkDock/SCRATCH/511014/C17284-P96

>  <fragmenstein_runtime>  (409) 
12.830396175384521

>  <fragmenstein_outcome>  (409) 
too moved

>  <fragmenstein_mode>  (409) 
expansion

>  <fragmenstein_error>  (409) 


$$$$
C17284-P59
     RDKit          3D

 42 44  0  0  0  0  0  0  0  0999 V2000
   -9.0628  -13.6188   27.6183 C   0  0  0  0  0  0  0  0  0  0  0  0
   -7.6506  -13.7877   28.2328 C   0  0  0  0  0  0  0  0  0  0  0  0
   -8.1611  -15.9371   28.0140 C   0  0  0  0  0  0  0  0  0  0  0  0
   -8.9819  -17.8814   28.3563 C   0  0  0  0  0  0  0  0  0  0  0  0
   -9.0640  -19.5949   28.3511 C   0  0  0  0  0  0  0  0  0  0  0  0
  -10.5487  -20.7737   28.7703 C   0  0  0  0  0  0  0  0  0  0  0  0
  -11.1112  -20.0540   29.7317 N   0  0  0  0  0  0  0  0  0  0  0  0
  -10.6775  -18.3032   29.2125 O   0  0  0  0  0  0  0  0  0  0  0  0
   -6.4361  -11.9329   28.4596 N   0  0  0  0  0  0  0  0  0  0  0  0
   -6.8412   -9.4453   28.7493 S   0  0  0  0  0  0  0  0  0  0  0  0
   -7.3610   -9.1108   27.4210 O   0  0  0  0  0  0  0  0  0  0  0  0
   -7.3690   -9.8297   29.9957 O   0  0  0  0  0  0  0  0  0  0  0  0
   -5.9286   -7.2518   29.0552 C   0  0  0  0  0  0  0  0  0  0  0  0
   -6.4428   -6.1484   30.4145 C   0  0  0  0  0  0  0  0  0  0  0  0
   -5.7527   -5.0437   30.1700 N   0  0  0  0  0  0  0  0  0  0  0  0
   -5.8641   -4.0287   29.3926 N   0  0  0  0  0  0  0  0  0  0  0  0
   -4.9482   -3.0934   30.7893 C   0  0  0  0  0  0  0  0  0  0  0  0
   -3.2862   -2.6195   30.7134 C   0  0  0  0  0  0  0  0  0  0  0  0
   -3.1921   -1.2846   31.4438 C   0  0  0  0  0  0  0  0  0  0  0  0
   -4.2976   -1.2810   32.4877 C   0  0  0  0  0  0  0  0  0  0  0  0
   -5.4258   -2.2592   32.0650 C   0  0  0  0  0  0  0  0  0  0  0  0
   -6.0909   -5.5265   28.3337 C   0  0  0  0  0  0  0  0  0  0  0  0
   -9.2558  -12.7451   27.0579 H   0  0  0  0  0  0  0  0  0  0  0  0
   -9.2422  -14.3959   26.8912 H   0  0  0  0  0  0  0  0  0  0  0  0
   -9.8790  -13.7044   28.3133 H   0  0  0  0  0  0  0  0  0  0  0  0
   -7.1958  -13.6521   27.2281 H   0  0  0  0  0  0  0  0  0  0  0  0
   -7.2606  -16.4112   28.3005 H   0  0  0  0  0  0  0  0  0  0  0  0
   -8.4731  -16.0036   26.9588 H   0  0  0  0  0  0  0  0  0  0  0  0
   -8.2750  -20.3752   27.9815 H   0  0  0  0  0  0  0  0  0  0  0  0
  -10.6394  -21.8350   28.5504 H   0  0  0  0  0  0  0  0  0  0  0  0
   -5.6906  -12.0221   29.1789 H   0  0  0  0  0  0  0  0  0  0  0  0
   -6.6636   -6.5206   31.4521 H   0  0  0  0  0  0  0  0  0  0  0  0
   -4.7255   -3.9149   31.4358 H   0  0  0  0  0  0  0  0  0  0  0  0
   -2.6772   -3.3341   31.2775 H   0  0  0  0  0  0  0  0  0  0  0  0
   -2.8554   -2.5744   29.7054 H   0  0  0  0  0  0  0  0  0  0  0  0
   -3.3151   -0.4554   30.7418 H   0  0  0  0  0  0  0  0  0  0  0  0
   -2.2077   -1.1511   31.9048 H   0  0  0  0  0  0  0  0  0  0  0  0
   -4.7052   -0.2861   32.6651 H   0  0  0  0  0  0  0  0  0  0  0  0
   -3.8752   -1.5987   33.4510 H   0  0  0  0  0  0  0  0  0  0  0  0
   -5.3333   -2.9068   32.9191 H   0  0  0  0  0  0  0  0  0  0  0  0
   -6.4313   -1.8286   32.0346 H   0  0  0  0  0  0  0  0  0  0  0  0
   -6.5197   -5.1572   27.3984 H   0  0  0  0  0  0  0  0  0  0  0  0
  1  2  1  0
  2  3  1  0
  3  4  1  0
  4  5  2  0
  5  6  1  0
  6  7  2  0
  7  8  1  0
  2  9  1  0
  9 10  1  0
 10 11  2  0
 10 12  2  0
 10 13  1  0
 13 14  1  0
 14 15  2  0
 15 16  1  0
 16 17  1  0
 17 18  1  0
 18 19  1  0
 19 20  1  0
 20 21  1  0
 16 22  1  0
  8  4  1  0
 22 13  2  0
 21 17  1  0
  1 23  1  0
  1 24  1  0
  1 25  1  0
  2 26  1  0
  3 27  1  0
  3 28  1  0
  5 29  1  0
  6 30  1  0
  9 31  1  0
 14 32  1  0
 17 33  1  0
 18 34  1  0
 18 35  1  0
 19 36  1  0
 19 37  1  0
 20 38  1  0
 20 39  1  0
 21 40  1  0
 21 41  1  0
 22 42  1  0
M  END
>  <Energy>  (410) 
1733.1459459986022

>  <compound_id>  (410) 
17284

>  <target_id>  (410) 
1

>  <reference_id>  (410) 
59

>  <inspiration_ids>  (410) 
[96, 59]

>  <energy_score>  (410) 
1702.9718224737853

>  <distance_score>  (410) 
6.1837116724313175

>  <path>  (410) 
/opt/xchem-fragalysis-2/maxwin/BulkDock/SCRATCH/511014/C17284-P59/C17284-P59.minimised.mol

>  <scratch_subdir>  (410) 
/opt/xchem-fragalysis-2/maxwin/BulkDock/SCRATCH/511014/C17284-P59

>  <fragmenstein_runtime>  (410) 
18.215518474578857

>  <fragmenstein_outcome>  (410) 
too moved

>  <fragmenstein_mode>  (410) 
expansion

>  <fragmenstein_error>  (410) 


$$$$
C17288-P96
     RDKit          3D

 35 37  0  0  0  0  0  0  0  0999 V2000
   -5.0688  -17.9776   33.4189 C   0  0  0  0  0  0  0  0  0  0  0  0
   -4.2796  -16.8826   33.8160 C   0  0  0  0  0  0  0  0  0  0  0  0
   -5.0607  -15.7735   33.5679 C   0  0  0  0  0  0  0  0  0  0  0  0
   -4.9407  -14.2941   33.8039 C   0  0  0  0  0  0  0  0  0  0  0  0
   -3.2192  -13.5771   33.6194 S   0  0  0  0  0  0  0  0  0  0  0  0
   -3.3876  -11.8589   34.4057 C   0  0  0  0  0  0  0  0  0  0  0  0
   -2.5405  -10.7619   33.7932 C   0  0  0  0  0  0  0  0  0  0  0  0
   -1.2385  -10.8329   33.3046 C   0  0  0  0  0  0  0  0  0  0  0  0
   -0.9740   -9.5900   32.7774 C   0  0  0  0  0  0  0  0  0  0  0  0
   -2.0889   -8.7789   32.9313 N   0  0  0  0  0  0  0  0  0  0  0  0
   -2.5485   -7.4702   32.3225 C   0  0  0  0  0  0  0  0  0  0  0  0
   -3.8268   -6.9279   32.9652 C   0  0  0  0  0  0  0  0  0  0  0  0
   -4.3842   -6.0053   31.9955 C   0  0  0  0  0  0  0  0  0  0  0  0
   -3.1973   -5.3438   31.3395 C   0  0  0  0  0  0  0  0  0  0  0  0
   -2.0223   -6.0483   31.9567 C   0  0  0  0  0  0  0  0  0  0  0  0
   -2.9721   -9.4942   33.7168 N   0  0  0  0  0  0  0  0  0  0  0  0
   -6.2514  -16.2044   33.0395 O   0  0  0  0  0  0  0  0  0  0  0  0
   -6.2566  -17.5886   32.9617 N   0  0  0  0  0  0  0  0  0  0  0  0
   -4.8362  -19.0327   33.4507 H   0  0  0  0  0  0  0  0  0  0  0  0
   -3.2867  -16.8927   34.2397 H   0  0  0  0  0  0  0  0  0  0  0  0
   -5.6041  -13.7620   33.1213 H   0  0  0  0  0  0  0  0  0  0  0  0
   -5.2678  -14.0844   34.8278 H   0  0  0  0  0  0  0  0  0  0  0  0
   -3.1009  -11.9746   35.4564 H   0  0  0  0  0  0  0  0  0  0  0  0
   -4.4293  -11.5863   34.3817 H   0  0  0  0  0  0  0  0  0  0  0  0
   -0.5882  -11.6959   33.2746 H   0  0  0  0  0  0  0  0  0  0  0  0
   -0.0626   -9.3367   32.2743 H   0  0  0  0  0  0  0  0  0  0  0  0
   -2.7017   -7.7838   31.2919 H   0  0  0  0  0  0  0  0  0  0  0  0
   -4.5725   -7.6622   33.0949 H   0  0  0  0  0  0  0  0  0  0  0  0
   -3.7596   -6.3427   33.8818 H   0  0  0  0  0  0  0  0  0  0  0  0
   -4.9999   -6.5466   31.2640 H   0  0  0  0  0  0  0  0  0  0  0  0
   -5.0069   -5.3325   32.5834 H   0  0  0  0  0  0  0  0  0  0  0  0
   -3.1339   -4.2672   31.5257 H   0  0  0  0  0  0  0  0  0  0  0  0
   -3.2217   -5.4989   30.2533 H   0  0  0  0  0  0  0  0  0  0  0  0
   -1.7780   -5.4438   32.8169 H   0  0  0  0  0  0  0  0  0  0  0  0
   -1.2887   -5.9564   31.1681 H   0  0  0  0  0  0  0  0  0  0  0  0
  1  2  1  0
  2  3  2  0
  3  4  1  0
  4  5  1  0
  5  6  1  0
  6  7  1  0
  7  8  1  0
  8  9  2  0
  9 10  1  0
 10 11  1  0
 11 12  1  0
 12 13  1  0
 13 14  1  0
 14 15  1  0
 10 16  1  0
  3 17  1  0
 17 18  1  0
 18  1  2  0
 16  7  2  0
 15 11  1  0
  1 19  1  0
  2 20  1  0
  4 21  1  0
  4 22  1  0
  6 23  1  0
  6 24  1  0
  8 25  1  0
  9 26  1  0
 11 27  1  0
 12 28  1  0
 12 29  1  0
 13 30  1  0
 13 31  1  0
 14 32  1  0
 14 33  1  0
 15 34  1  0
 15 35  1  0
M  END
>  <Energy>  (411) 
86.226254242779774

>  <compound_id>  (411) 
17288

>  <target_id>  (411) 
1

>  <reference_id>  (411) 
96

>  <inspiration_ids>  (411) 
[96, 59]

>  <energy_score>  (411) 
17.420754590260913

>  <distance_score>  (411) 
9.251089880897448

>  <path>  (411) 
/opt/xchem-fragalysis-2/maxwin/BulkDock/SCRATCH/511014/C17288-P96/C17288-P96.minimised.mol

>  <scratch_subdir>  (411) 
/opt/xchem-fragalysis-2/maxwin/BulkDock/SCRATCH/511014/C17288-P96

>  <fragmenstein_runtime>  (411) 
7.4431962966918945

>  <fragmenstein_outcome>  (411) 
too moved

>  <fragmenstein_mode>  (411) 
expansion

>  <fragmenstein_error>  (411) 


$$$$
C17288-P59
     RDKit          3D

 35 37  0  0  0  0  0  0  0  0999 V2000
   -9.2463  -16.8827   26.8699 C   0  0  0  0  0  0  0  0  0  0  0  0
   -8.1585  -16.5406   27.5636 C   0  0  0  0  0  0  0  0  0  0  0  0
   -8.2472  -15.1633   27.5873 C   0  0  0  0  0  0  0  0  0  0  0  0
   -7.6353  -13.9244   28.1486 C   0  0  0  0  0  0  0  0  0  0  0  0
   -6.3919  -13.6420   29.8887 S   0  0  0  0  0  0  0  0  0  0  0  0
   -5.9130  -11.2620   29.6153 C   0  0  0  0  0  0  0  0  0  0  0  0
   -6.5162   -9.2661   29.7298 C   0  0  0  0  0  0  0  0  0  0  0  0
   -5.6208   -8.5148   31.2131 C   0  0  0  0  0  0  0  0  0  0  0  0
   -6.4203   -6.9533   31.7445 C   0  0  0  0  0  0  0  0  0  0  0  0
   -6.1889   -5.9131   30.2754 N   0  0  0  0  0  0  0  0  0  0  0  0
   -5.5699   -3.9368   30.2171 C   0  0  0  0  0  0  0  0  0  0  0  0
   -3.8537   -2.9776   30.8390 C   0  0  0  0  0  0  0  0  0  0  0  0
   -3.7430   -1.7494   31.7429 C   0  0  0  0  0  0  0  0  0  0  0  0
   -5.0516   -1.6230   32.4031 C   0  0  0  0  0  0  0  0  0  0  0  0
   -5.9530   -2.6347   31.6350 C   0  0  0  0  0  0  0  0  0  0  0  0
   -5.9844   -7.5867   29.2374 N   0  0  0  0  0  0  0  0  0  0  0  0
   -9.1771  -14.8406   26.6674 O   0  0  0  0  0  0  0  0  0  0  0  0
   -9.8787  -15.9428   26.2542 N   0  0  0  0  0  0  0  0  0  0  0  0
   -9.6847  -17.7773   27.1313 H   0  0  0  0  0  0  0  0  0  0  0  0
   -7.5330  -17.2742   28.0303 H   0  0  0  0  0  0  0  0  0  0  0  0
   -7.2503  -13.2925   27.3450 H   0  0  0  0  0  0  0  0  0  0  0  0
   -8.5959  -13.5778   28.4762 H   0  0  0  0  0  0  0  0  0  0  0  0
   -4.8489  -11.6127   29.5677 H   0  0  0  0  0  0  0  0  0  0  0  0
   -6.1166  -11.1030   30.6827 H   0  0  0  0  0  0  0  0  0  0  0  0
   -4.6133   -8.7150   31.5879 H   0  0  0  0  0  0  0  0  0  0  0  0
   -7.3665   -6.7705   32.2431 H   0  0  0  0  0  0  0  0  0  0  0  0
   -5.0052   -4.4109   31.0555 H   0  0  0  0  0  0  0  0  0  0  0  0
   -3.1354   -3.6376   31.3146 H   0  0  0  0  0  0  0  0  0  0  0  0
   -3.2167   -2.7488   29.9488 H   0  0  0  0  0  0  0  0  0  0  0  0
   -2.9435   -1.8776   32.4829 H   0  0  0  0  0  0  0  0  0  0  0  0
   -3.4708   -0.8524   31.1748 H   0  0  0  0  0  0  0  0  0  0  0  0
   -5.4421   -0.6022   32.4181 H   0  0  0  0  0  0  0  0  0  0  0  0
   -4.9712   -1.8623   33.4760 H   0  0  0  0  0  0  0  0  0  0  0  0
   -6.9884   -2.2901   31.6026 H   0  0  0  0  0  0  0  0  0  0  0  0
   -5.6060   -3.2789   32.4377 H   0  0  0  0  0  0  0  0  0  0  0  0
  1  2  1  0
  2  3  2  0
  3  4  1  0
  4  5  1  0
  5  6  1  0
  6  7  1  0
  7  8  1  0
  8  9  2  0
  9 10  1  0
 10 11  1  0
 11 12  1  0
 12 13  1  0
 13 14  1  0
 14 15  1  0
 10 16  1  0
  3 17  1  0
 17 18  1  0
 18  1  2  0
 16  7  2  0
 15 11  1  0
  1 19  1  0
  2 20  1  0
  4 21  1  0
  4 22  1  0
  6 23  1  0
  6 24  1  0
  8 25  1  0
  9 26  1  0
 11 27  1  0
 12 28  1  0
 12 29  1  0
 13 30  1  0
 13 31  1  0
 14 32  1  0
 14 33  1  0
 15 34  1  0
 15 35  1  0
M  END
>  <Energy>  (412) 
1176.9875057826621

>  <compound_id>  (412) 
17288

>  <target_id>  (412) 
1

>  <reference_id>  (412) 
59

>  <inspiration_ids>  (412) 
[96, 59]

>  <energy_score>  (412) 
1108.1820061301369

>  <distance_score>  (412) 
7.869459621502241

>  <path>  (412) 
/opt/xchem-fragalysis-2/maxwin/BulkDock/SCRATCH/511014/C17288-P59/C17288-P59.minimised.mol

>  <scratch_subdir>  (412) 
/opt/xchem-fragalysis-2/maxwin/BulkDock/SCRATCH/511014/C17288-P59

>  <fragmenstein_runtime>  (412) 
11.425761222839355

>  <fragmenstein_outcome>  (412) 
too moved

>  <fragmenstein_mode>  (412) 
expansion

>  <fragmenstein_error>  (412) 


$$$$
C17290-P96
     RDKit          3D

 47 48  0  0  0  0  0  0  0  0999 V2000
   -2.3226   -5.1737   28.7028 C   0  0  0  0  0  0  0  0  0  0  0  0
   -2.7251   -5.7067   30.0190 C   0  0  0  0  0  0  0  0  0  0  0  0
   -2.6796   -4.9745   31.1921 C   0  0  0  0  0  0  0  0  0  0  0  0
   -2.9131   -5.9006   32.1916 C   0  0  0  0  0  0  0  0  0  0  0  0
   -2.9459   -7.1401   31.7140 N   0  0  0  0  0  0  0  0  0  0  0  0
   -3.1567   -7.0142   30.3876 N   0  0  0  0  0  0  0  0  0  0  0  0
   -3.7954   -8.2594   29.3871 C   0  0  0  0  0  0  0  0  0  0  0  0
   -5.3418   -9.5045   29.3233 C   0  0  0  0  0  0  0  0  0  0  0  0
   -6.2207   -9.0926   30.0284 O   0  0  0  0  0  0  0  0  0  0  0  0
   -5.3702  -10.7978   28.3599 N   0  0  0  0  0  0  0  0  0  0  0  0
   -6.6992  -12.1439   28.1131 C   0  0  0  0  0  0  0  0  0  0  0  0
   -6.9781  -12.1866   29.5634 C   0  0  0  0  0  0  0  0  0  0  0  0
   -8.1745  -12.9661   27.0610 C   0  0  0  0  0  0  0  0  0  0  0  0
   -9.2784  -14.3440   26.2194 C   0  0  0  0  0  0  0  0  0  0  0  0
  -11.0354  -13.8232   26.3981 C   0  0  0  0  0  0  0  0  0  0  0  0
   -9.4565  -16.1416   26.3048 N   0  0  0  0  0  0  0  0  0  0  0  0
   -8.8139  -17.3263   27.4450 C   0  0  0  0  0  0  0  0  0  0  0  0
   -8.0814  -16.9858   28.2639 O   0  0  0  0  0  0  0  0  0  0  0  0
   -9.1348  -19.3993   27.5996 C   0  0  0  0  0  0  0  0  0  0  0  0
  -10.0473  -20.3162   28.7453 C   0  0  0  0  0  0  0  0  0  0  0  0
  -10.5438  -21.6086   28.6564 C   0  0  0  0  0  0  0  0  0  0  0  0
  -11.2925  -21.7695   29.8312 C   0  0  0  0  0  0  0  0  0  0  0  0
  -11.2883  -20.6645   30.5778 N   0  0  0  0  0  0  0  0  0  0  0  0
  -10.5180  -19.7422   29.8820 O   0  0  0  0  0  0  0  0  0  0  0  0
   -3.1770   -4.8533   28.1174 H   0  0  0  0  0  0  0  0  0  0  0  0
   -1.7450   -5.8952   28.1206 H   0  0  0  0  0  0  0  0  0  0  0  0
   -1.6785   -4.2948   28.8247 H   0  0  0  0  0  0  0  0  0  0  0  0
   -2.4619   -3.9215   31.2944 H   0  0  0  0  0  0  0  0  0  0  0  0
   -2.9769   -5.7341   33.2536 H   0  0  0  0  0  0  0  0  0  0  0  0
   -2.9649   -8.4453   28.6995 H   0  0  0  0  0  0  0  0  0  0  0  0
   -4.3638   -7.3208   29.2763 H   0  0  0  0  0  0  0  0  0  0  0  0
   -4.4570  -10.9303   27.9612 H   0  0  0  0  0  0  0  0  0  0  0  0
   -6.9807  -11.3987   27.3878 H   0  0  0  0  0  0  0  0  0  0  0  0
   -6.3034  -12.9743   29.8247 H   0  0  0  0  0  0  0  0  0  0  0  0
   -6.8851  -11.2329   30.0262 H   0  0  0  0  0  0  0  0  0  0  0  0
   -7.8782  -12.5083   30.0888 H   0  0  0  0  0  0  0  0  0  0  0  0
   -7.6962  -13.8814   27.3635 H   0  0  0  0  0  0  0  0  0  0  0  0
   -7.8812  -12.5266   26.0964 H   0  0  0  0  0  0  0  0  0  0  0  0
   -8.9226  -14.3009   25.1876 H   0  0  0  0  0  0  0  0  0  0  0  0
  -11.6533  -14.5628   25.8695 H   0  0  0  0  0  0  0  0  0  0  0  0
  -11.1491  -12.7851   26.0649 H   0  0  0  0  0  0  0  0  0  0  0  0
  -11.5665  -13.7790   27.3592 H   0  0  0  0  0  0  0  0  0  0  0  0
  -10.1358  -16.5951   25.7206 H   0  0  0  0  0  0  0  0  0  0  0  0
   -9.8493  -19.8185   26.8746 H   0  0  0  0  0  0  0  0  0  0  0  0
   -8.0356  -19.8579   27.4050 H   0  0  0  0  0  0  0  0  0  0  0  0
  -10.3994  -22.3149   27.8543 H   0  0  0  0  0  0  0  0  0  0  0  0
  -11.8483  -22.6300   30.1755 H   0  0  0  0  0  0  0  0  0  0  0  0
  1  2  1  0
  2  3  2  0
  3  4  1  0
  4  5  2  0
  5  6  1  0
  6  7  1  0
  7  8  1  0
  8  9  2  0
  8 10  1  0
 10 11  1  0
 11 12  1  0
 11 13  1  0
 13 14  1  0
 14 15  1  0
 14 16  1  0
 16 17  1  0
 17 18  2  0
 17 19  1  0
 19 20  1  0
 20 21  2  0
 21 22  1  0
 22 23  2  0
 23 24  1  0
  6  2  1  0
 24 20  1  0
  1 25  1  0
  1 26  1  0
  1 27  1  0
  3 28  1  0
  4 29  1  0
  7 30  1  0
  7 31  1  0
 10 32  1  0
 11 33  1  0
 12 34  1  0
 12 35  1  0
 12 36  1  0
 13 37  1  0
 13 38  1  0
 14 39  1  0
 15 40  1  0
 15 41  1  0
 15 42  1  0
 16 43  1  0
 19 44  1  0
 19 45  1  0
 21 46  1  0
 22 47  1  0
M  END
>  <Energy>  (413) 
729.55139274136548

>  <compound_id>  (413) 
17290

>  <target_id>  (413) 
1

>  <reference_id>  (413) 
96

>  <inspiration_ids>  (413) 
[96, 59]

>  <energy_score>  (413) 
680.6447671664637

>  <distance_score>  (413) 
6.034775985843307

>  <path>  (413) 
/opt/xchem-fragalysis-2/maxwin/BulkDock/SCRATCH/511014/C17290-P96/C17290-P96.minimised.mol

>  <scratch_subdir>  (413) 
/opt/xchem-fragalysis-2/maxwin/BulkDock/SCRATCH/511014/C17290-P96

>  <fragmenstein_runtime>  (413) 
17.81895613670349

>  <fragmenstein_outcome>  (413) 
too moved

>  <fragmenstein_mode>  (413) 
expansion

>  <fragmenstein_error>  (413) 


$$$$
C17290-P59
     RDKit          3D

 47 48  0  0  0  0  0  0  0  0999 V2000
   -3.3649   -2.7659   30.9618 C   0  0  0  0  0  0  0  0  0  0  0  0
   -4.9361   -3.1993   30.9181 C   0  0  0  0  0  0  0  0  0  0  0  0
   -5.6834   -2.5006   31.8310 C   0  0  0  0  0  0  0  0  0  0  0  0
   -6.9354   -2.3750   31.1842 C   0  0  0  0  0  0  0  0  0  0  0  0
   -7.2754   -3.1669   30.0571 N   0  0  0  0  0  0  0  0  0  0  0  0
   -5.9301   -3.9789   29.6253 N   0  0  0  0  0  0  0  0  0  0  0  0
   -6.1090   -5.6324   28.5548 C   0  0  0  0  0  0  0  0  0  0  0  0
   -5.5962   -7.6594   28.7942 C   0  0  0  0  0  0  0  0  0  0  0  0
   -4.4238   -7.7720   28.6395 O   0  0  0  0  0  0  0  0  0  0  0  0
   -6.6766   -9.2083   29.0462 N   0  0  0  0  0  0  0  0  0  0  0  0
   -6.1928  -11.1636   29.2478 C   0  0  0  0  0  0  0  0  0  0  0  0
   -4.7245  -11.9274   29.2971 C   0  0  0  0  0  0  0  0  0  0  0  0
   -7.0119  -12.7983   28.1662 C   0  0  0  0  0  0  0  0  0  0  0  0
   -8.3830  -14.0181   27.5455 C   0  0  0  0  0  0  0  0  0  0  0  0
   -9.8808  -13.6842   27.4560 C   0  0  0  0  0  0  0  0  0  0  0  0
   -8.5094  -15.7714   27.6722 N   0  0  0  0  0  0  0  0  0  0  0  0
   -9.5642  -16.7757   27.0576 C   0  0  0  0  0  0  0  0  0  0  0  0
  -10.4672  -16.5788   26.2822 O   0  0  0  0  0  0  0  0  0  0  0  0
   -9.2576  -18.4522   27.9207 C   0  0  0  0  0  0  0  0  0  0  0  0
   -9.8885  -20.4424   27.9515 C   0  0  0  0  0  0  0  0  0  0  0  0
  -10.8943  -21.0511   29.1223 C   0  0  0  0  0  0  0  0  0  0  0  0
  -11.6715  -22.0942   28.6964 C   0  0  0  0  0  0  0  0  0  0  0  0
  -11.5027  -22.3449   27.4321 N   0  0  0  0  0  0  0  0  0  0  0  0
  -11.1212  -21.0857   26.9716 O   0  0  0  0  0  0  0  0  0  0  0  0
   -3.3147   -1.6984   31.2206 H   0  0  0  0  0  0  0  0  0  0  0  0
   -2.8325   -2.8626   30.0094 H   0  0  0  0  0  0  0  0  0  0  0  0
   -2.8178   -3.2725   31.7538 H   0  0  0  0  0  0  0  0  0  0  0  0
   -5.3304   -1.9195   32.6742 H   0  0  0  0  0  0  0  0  0  0  0  0
   -7.5460   -1.6497   31.6718 H   0  0  0  0  0  0  0  0  0  0  0  0
   -7.0390   -5.3171   27.9426 H   0  0  0  0  0  0  0  0  0  0  0  0
   -5.7813   -5.0749   27.6591 H   0  0  0  0  0  0  0  0  0  0  0  0
   -7.6395   -8.9338   29.0761 H   0  0  0  0  0  0  0  0  0  0  0  0
   -6.2861  -11.0069   30.3533 H   0  0  0  0  0  0  0  0  0  0  0  0
   -3.8658  -11.5863   29.8251 H   0  0  0  0  0  0  0  0  0  0  0  0
   -4.9329  -12.8787   29.7271 H   0  0  0  0  0  0  0  0  0  0  0  0
   -4.3162  -11.9207   28.2926 H   0  0  0  0  0  0  0  0  0  0  0  0
   -6.7659  -13.5902   28.9337 H   0  0  0  0  0  0  0  0  0  0  0  0
   -6.6091  -12.6624   27.1314 H   0  0  0  0  0  0  0  0  0  0  0  0
   -8.4859  -14.0755   28.6253 H   0  0  0  0  0  0  0  0  0  0  0  0
  -10.3683  -13.6660   28.4124 H   0  0  0  0  0  0  0  0  0  0  0  0
  -10.5036  -14.5186   27.1326 H   0  0  0  0  0  0  0  0  0  0  0  0
  -10.1487  -12.8090   26.8799 H   0  0  0  0  0  0  0  0  0  0  0  0
   -7.8460  -16.2794   28.2175 H   0  0  0  0  0  0  0  0  0  0  0  0
   -8.2448  -18.5204   27.8432 H   0  0  0  0  0  0  0  0  0  0  0  0
   -8.8050  -18.0245   28.8027 H   0  0  0  0  0  0  0  0  0  0  0  0
  -11.0704  -20.5710   30.0696 H   0  0  0  0  0  0  0  0  0  0  0  0
  -12.4199  -22.5983   29.2483 H   0  0  0  0  0  0  0  0  0  0  0  0
  1  2  1  0
  2  3  2  0
  3  4  1  0
  4  5  2  0
  5  6  1  0
  6  7  1  0
  7  8  1  0
  8  9  2  0
  8 10  1  0
 10 11  1  0
 11 12  1  0
 11 13  1  0
 13 14  1  0
 14 15  1  0
 14 16  1  0
 16 17  1  0
 17 18  2  0
 17 19  1  0
 19 20  1  0
 20 21  2  0
 21 22  1  0
 22 23  2  0
 23 24  1  0
  6  2  1  0
 24 20  1  0
  1 25  1  0
  1 26  1  0
  1 27  1  0
  3 28  1  0
  4 29  1  0
  7 30  1  0
  7 31  1  0
 10 32  1  0
 11 33  1  0
 12 34  1  0
 12 35  1  0
 12 36  1  0
 13 37  1  0
 13 38  1  0
 14 39  1  0
 15 40  1  0
 15 41  1  0
 15 42  1  0
 16 43  1  0
 19 44  1  0
 19 45  1  0
 21 46  1  0
 22 47  1  0
M  END
>  <Energy>  (414) 
1120.5583780887684

>  <compound_id>  (414) 
17290

>  <target_id>  (414) 
1

>  <reference_id>  (414) 
59

>  <inspiration_ids>  (414) 
[96, 59]

>  <energy_score>  (414) 
1071.6517525138624

>  <distance_score>  (414) 
4.849302203292794

>  <path>  (414) 
/opt/xchem-fragalysis-2/maxwin/BulkDock/SCRATCH/511014/C17290-P59/C17290-P59.minimised.mol

>  <scratch_subdir>  (414) 
/opt/xchem-fragalysis-2/maxwin/BulkDock/SCRATCH/511014/C17290-P59

>  <fragmenstein_runtime>  (414) 
29.86031699180603

>  <fragmenstein_outcome>  (414) 
too moved

>  <fragmenstein_mode>  (414) 
expansion

>  <fragmenstein_error>  (414) 


$$$$
C17299-P96
     RDKit          3D

 36 37  0  0  0  0  0  0  0  0999 V2000
   -7.4918   -8.4482   28.4402 O   0  0  0  0  0  0  0  0  0  0  0  0
   -6.5275   -9.0622   28.8493 C   0  0  0  0  0  0  0  0  0  0  0  0
   -5.8753  -10.7637   28.1584 C   0  0  0  0  0  0  0  0  0  0  0  0
   -6.8807  -11.6127   26.8548 C   0  0  0  0  0  0  0  0  0  0  0  0
   -6.9905  -11.6290   25.4188 C   0  0  0  0  0  0  0  0  0  0  0  0
   -8.0602  -12.5123   25.1175 C   0  0  0  0  0  0  0  0  0  0  0  0
   -8.4744  -13.1628   26.2005 N   0  0  0  0  0  0  0  0  0  0  0  0
   -7.7173  -12.6537   27.2524 O   0  0  0  0  0  0  0  0  0  0  0  0
   -5.5014   -8.6902   29.8723 N   0  0  0  0  0  0  0  0  0  0  0  0
   -5.2256   -7.1558   30.7677 C   0  0  0  0  0  0  0  0  0  0  0  0
   -5.0733   -6.8300   32.4151 C   0  0  0  0  0  0  0  0  0  0  0  0
   -4.5314   -5.5482   32.8163 O   0  0  0  0  0  0  0  0  0  0  0  0
   -3.5983   -6.8547   30.3819 C   0  0  0  0  0  0  0  0  0  0  0  0
   -3.0583   -5.5189   30.3221 N   0  0  0  0  0  0  0  0  0  0  0  0
   -2.5568   -4.7578   29.2193 C   0  0  0  0  0  0  0  0  0  0  0  0
   -2.5312   -5.0055   28.0545 O   0  0  0  0  0  0  0  0  0  0  0  0
   -1.9522   -3.4879   29.6556 C   0  0  0  0  0  0  0  0  0  0  0  0
   -2.1569   -2.8194   30.8378 N   0  0  0  0  0  0  0  0  0  0  0  0
   -1.3734   -1.7500   31.0429 N   0  0  0  0  0  0  0  0  0  0  0  0
   -0.7479   -1.6172   29.8727 C   0  0  0  0  0  0  0  0  0  0  0  0
   -1.0945   -2.6393   28.9690 C   0  0  0  0  0  0  0  0  0  0  0  0
   -0.5061   -2.7259   27.3840 Cl  0  0  0  0  0  0  0  0  0  0  0  0
   -4.8478  -10.5437   27.8664 H   0  0  0  0  0  0  0  0  0  0  0  0
   -5.9582  -11.4863   28.9646 H   0  0  0  0  0  0  0  0  0  0  0  0
   -6.4370  -11.0155   24.7240 H   0  0  0  0  0  0  0  0  0  0  0  0
   -8.5103  -12.7287   24.1610 H   0  0  0  0  0  0  0  0  0  0  0  0
   -4.8307   -9.3667   29.8927 H   0  0  0  0  0  0  0  0  0  0  0  0
   -5.6551   -6.3778   30.1635 H   0  0  0  0  0  0  0  0  0  0  0  0
   -5.9616   -6.9849   32.9891 H   0  0  0  0  0  0  0  0  0  0  0  0
   -4.3798   -7.4854   32.9538 H   0  0  0  0  0  0  0  0  0  0  0  0
   -4.1371   -5.7853   33.6796 H   0  0  0  0  0  0  0  0  0  0  0  0
   -2.9378   -7.3146   31.1247 H   0  0  0  0  0  0  0  0  0  0  0  0
   -3.3497   -7.3558   29.4548 H   0  0  0  0  0  0  0  0  0  0  0  0
   -2.8399   -5.0380   31.1787 H   0  0  0  0  0  0  0  0  0  0  0  0
   -2.8570   -3.0068   31.5436 H   0  0  0  0  0  0  0  0  0  0  0  0
   -0.0715   -0.7856   29.7223 H   0  0  0  0  0  0  0  0  0  0  0  0
  1  2  2  0
  2  3  1  0
  3  4  1  0
  4  5  2  0
  5  6  1  0
  6  7  2  0
  7  8  1  0
  2  9  1  0
  9 10  1  0
 10 11  1  0
 11 12  1  0
 10 13  1  0
 13 14  1  0
 14 15  1  0
 15 16  2  0
 15 17  1  0
 17 18  1  0
 18 19  1  0
 19 20  2  0
 20 21  1  0
 21 22  1  0
  8  4  1  0
 21 17  2  0
  3 23  1  0
  3 24  1  0
  5 25  1  0
  6 26  1  0
  9 27  1  0
 10 28  1  0
 11 29  1  0
 11 30  1  0
 12 31  1  0
 13 32  1  0
 13 33  1  0
 14 34  1  0
 18 35  1  0
 20 36  1  0
M  END
>  <Energy>  (415) 
157.21345594332601

>  <compound_id>  (415) 
17299

>  <target_id>  (415) 
1

>  <reference_id>  (415) 
96

>  <inspiration_ids>  (415) 
[96, 59]

>  <energy_score>  (415) 
138.35854000331847

>  <distance_score>  (415) 
8.519228278324318

>  <path>  (415) 
/opt/xchem-fragalysis-2/maxwin/BulkDock/SCRATCH/511014/C17299-P96/C17299-P96.minimised.mol

>  <scratch_subdir>  (415) 
/opt/xchem-fragalysis-2/maxwin/BulkDock/SCRATCH/511014/C17299-P96

>  <fragmenstein_runtime>  (415) 
13.834296464920044

>  <fragmenstein_outcome>  (415) 
too moved

>  <fragmenstein_mode>  (415) 
expansion

>  <fragmenstein_error>  (415) 


$$$$
C17299-P59
     RDKit          3D

 36 37  0  0  0  0  0  0  0  0999 V2000
   -6.8182  -11.6189   31.4979 O   0  0  0  0  0  0  0  0  0  0  0  0
   -6.8316  -11.7910   32.6646 C   0  0  0  0  0  0  0  0  0  0  0  0
   -7.6972  -13.2511   33.0140 C   0  0  0  0  0  0  0  0  0  0  0  0
   -9.2979  -14.4621   32.7639 C   0  0  0  0  0  0  0  0  0  0  0  0
   -9.5146  -15.9770   33.3560 C   0  0  0  0  0  0  0  0  0  0  0  0
  -10.6774  -16.0963   34.0922 C   0  0  0  0  0  0  0  0  0  0  0  0
  -11.4099  -15.0835   33.6439 N   0  0  0  0  0  0  0  0  0  0  0  0
  -10.5150  -14.1483   33.1408 O   0  0  0  0  0  0  0  0  0  0  0  0
   -6.1940  -10.6128   33.9032 N   0  0  0  0  0  0  0  0  0  0  0  0
   -5.4959   -8.7678   33.7342 C   0  0  0  0  0  0  0  0  0  0  0  0
   -4.2672   -8.9746   34.8839 C   0  0  0  0  0  0  0  0  0  0  0  0
   -4.7772   -8.8257   36.2058 O   0  0  0  0  0  0  0  0  0  0  0  0
   -6.8474   -7.1479   33.3800 C   0  0  0  0  0  0  0  0  0  0  0  0
   -6.2118   -5.4064   34.0659 N   0  0  0  0  0  0  0  0  0  0  0  0
   -5.1541   -4.0022   33.2185 C   0  0  0  0  0  0  0  0  0  0  0  0
   -4.7507   -3.8980   32.0694 O   0  0  0  0  0  0  0  0  0  0  0  0
   -4.8030   -2.6790   34.0361 C   0  0  0  0  0  0  0  0  0  0  0  0
   -5.5579   -1.9498   34.9129 N   0  0  0  0  0  0  0  0  0  0  0  0
   -4.9708   -0.8256   35.3609 N   0  0  0  0  0  0  0  0  0  0  0  0
   -3.8448   -0.7579   34.6511 C   0  0  0  0  0  0  0  0  0  0  0  0
   -3.7071   -1.8484   33.7836 C   0  0  0  0  0  0  0  0  0  0  0  0
   -2.4126   -2.0332   32.6974 Cl  0  0  0  0  0  0  0  0  0  0  0  0
   -7.3068  -13.7207   32.0794 H   0  0  0  0  0  0  0  0  0  0  0  0
   -8.4797  -12.4675   33.0593 H   0  0  0  0  0  0  0  0  0  0  0  0
   -8.7415  -16.7262   33.5153 H   0  0  0  0  0  0  0  0  0  0  0  0
  -11.0745  -16.8636   34.7453 H   0  0  0  0  0  0  0  0  0  0  0  0
   -6.2459  -11.0264   34.8204 H   0  0  0  0  0  0  0  0  0  0  0  0
   -5.7639   -8.2229   34.6401 H   0  0  0  0  0  0  0  0  0  0  0  0
   -3.4011   -8.3224   34.7608 H   0  0  0  0  0  0  0  0  0  0  0  0
   -3.8510   -9.9832   34.9419 H   0  0  0  0  0  0  0  0  0  0  0  0
   -5.2907   -9.6200   36.4458 H   0  0  0  0  0  0  0  0  0  0  0  0
   -7.9583   -7.0324   33.3964 H   0  0  0  0  0  0  0  0  0  0  0  0
   -6.8110   -6.9472   32.2760 H   0  0  0  0  0  0  0  0  0  0  0  0
   -6.4570   -5.1629   35.0220 H   0  0  0  0  0  0  0  0  0  0  0  0
   -6.5115   -2.1182   35.2101 H   0  0  0  0  0  0  0  0  0  0  0  0
   -3.1810    0.0850   34.7914 H   0  0  0  0  0  0  0  0  0  0  0  0
  1  2  2  0
  2  3  1  0
  3  4  1  0
  4  5  2  0
  5  6  1  0
  6  7  2  0
  7  8  1  0
  2  9  1  0
  9 10  1  0
 10 11  1  0
 11 12  1  0
 10 13  1  0
 13 14  1  0
 14 15  1  0
 15 16  2  0
 15 17  1  0
 17 18  1  0
 18 19  1  0
 19 20  2  0
 20 21  1  0
 21 22  1  0
  8  4  1  0
 21 17  2  0
  3 23  1  0
  3 24  1  0
  5 25  1  0
  6 26  1  0
  9 27  1  0
 10 28  1  0
 11 29  1  0
 11 30  1  0
 12 31  1  0
 13 32  1  0
 13 33  1  0
 14 34  1  0
 18 35  1  0
 20 36  1  0
M  END
>  <Energy>  (416) 
699.12675118724985

>  <compound_id>  (416) 
17299

>  <target_id>  (416) 
1

>  <reference_id>  (416) 
59

>  <inspiration_ids>  (416) 
[96, 59]

>  <energy_score>  (416) 
680.2718352472281

>  <distance_score>  (416) 
8.070160364998587

>  <path>  (416) 
/opt/xchem-fragalysis-2/maxwin/BulkDock/SCRATCH/511014/C17299-P59/C17299-P59.minimised.mol

>  <scratch_subdir>  (416) 
/opt/xchem-fragalysis-2/maxwin/BulkDock/SCRATCH/511014/C17299-P59

>  <fragmenstein_runtime>  (416) 
21.223222017288208

>  <fragmenstein_outcome>  (416) 
too moved

>  <fragmenstein_mode>  (416) 
expansion

>  <fragmenstein_error>  (416) 


$$$$
C17300-P96
     RDKit          3D

 41 42  0  0  0  0  0  0  0  0999 V2000
   -9.4097  -10.7143   21.5396 C   0  0  0  0  0  0  0  0  0  0  0  0
   -9.2154  -11.5943   22.7101 N   0  0  0  0  0  0  0  0  0  0  0  0
   -8.4710  -10.3303   23.2514 C   0  0  0  0  0  0  0  0  0  0  0  0
   -9.1661   -8.9746   23.6691 C   0  0  0  0  0  0  0  0  0  0  0  0
   -9.0331   -7.8309   22.6059 C   0  0  0  0  0  0  0  0  0  0  0  0
   -8.7276   -6.4689   23.1899 N   0  0  0  0  0  0  0  0  0  0  0  0
   -7.3154   -6.9168   22.9373 C   0  0  0  0  0  0  0  0  0  0  0  0
   -8.9288   -5.1626   22.6598 C   0  0  0  0  0  0  0  0  0  0  0  0
   -9.3096   -4.8106   21.5770 O   0  0  0  0  0  0  0  0  0  0  0  0
   -8.6937   -4.1489   23.6815 C   0  0  0  0  0  0  0  0  0  0  0  0
   -8.6114   -2.8056   23.4013 N   0  0  0  0  0  0  0  0  0  0  0  0
   -8.3773   -2.0217   24.4725 N   0  0  0  0  0  0  0  0  0  0  0  0
   -8.3726   -2.8857   25.4872 C   0  0  0  0  0  0  0  0  0  0  0  0
   -8.5317   -4.2164   25.0501 C   0  0  0  0  0  0  0  0  0  0  0  0
   -8.4780   -5.5944   26.0301 Cl  0  0  0  0  0  0  0  0  0  0  0  0
  -10.1547  -12.0768   23.6883 C   0  0  0  0  0  0  0  0  0  0  0  0
  -11.3183  -11.8123   23.8520 O   0  0  0  0  0  0  0  0  0  0  0  0
   -9.4984  -13.1742   24.5555 C   0  0  0  0  0  0  0  0  0  0  0  0
   -9.7985  -14.5314   23.9972 C   0  0  0  0  0  0  0  0  0  0  0  0
   -9.1573  -15.3431   23.0897 C   0  0  0  0  0  0  0  0  0  0  0  0
  -10.0206  -16.4363   22.9263 C   0  0  0  0  0  0  0  0  0  0  0  0
  -11.0872  -16.3580   23.7261 N   0  0  0  0  0  0  0  0  0  0  0  0
  -10.9334  -15.1627   24.4242 O   0  0  0  0  0  0  0  0  0  0  0  0
   -9.8743  -11.3930   20.8077 H   0  0  0  0  0  0  0  0  0  0  0  0
  -10.2007   -9.9683   21.6716 H   0  0  0  0  0  0  0  0  0  0  0  0
   -8.5054  -10.3809   21.0120 H   0  0  0  0  0  0  0  0  0  0  0  0
   -8.0934  -10.7134   24.2114 H   0  0  0  0  0  0  0  0  0  0  0  0
   -7.5250  -10.1612   22.7087 H   0  0  0  0  0  0  0  0  0  0  0  0
  -10.2255   -9.1497   23.8868 H   0  0  0  0  0  0  0  0  0  0  0  0
   -8.7114   -8.6315   24.6044 H   0  0  0  0  0  0  0  0  0  0  0  0
  -10.0660   -7.6736   22.2538 H   0  0  0  0  0  0  0  0  0  0  0  0
   -8.5488   -8.1059   21.6534 H   0  0  0  0  0  0  0  0  0  0  0  0
   -6.9971   -7.8418   23.4288 H   0  0  0  0  0  0  0  0  0  0  0  0
   -6.6783   -6.1544   23.4057 H   0  0  0  0  0  0  0  0  0  0  0  0
   -7.0276   -6.8600   21.8752 H   0  0  0  0  0  0  0  0  0  0  0  0
   -8.7105   -2.3704   22.4884 H   0  0  0  0  0  0  0  0  0  0  0  0
   -8.2244   -2.5116   26.4906 H   0  0  0  0  0  0  0  0  0  0  0  0
   -8.4149  -13.0233   24.6076 H   0  0  0  0  0  0  0  0  0  0  0  0
   -9.8856  -13.0870   25.5754 H   0  0  0  0  0  0  0  0  0  0  0  0
   -8.2321  -15.1355   22.5734 H   0  0  0  0  0  0  0  0  0  0  0  0
   -9.9192  -17.2849   22.2635 H   0  0  0  0  0  0  0  0  0  0  0  0
  1  2  1  0
  2  3  1  0
  3  4  1  0
  4  5  1  0
  5  6  1  0
  6  7  1  0
  6  8  1  0
  8  9  2  0
  8 10  1  0
 10 11  1  0
 11 12  1  0
 12 13  2  0
 13 14  1  0
 14 15  1  0
  2 16  1  0
 16 17  2  0
 16 18  1  0
 18 19  1  0
 19 20  2  0
 20 21  1  0
 21 22  2  0
 22 23  1  0
 14 10  2  0
 23 19  1  0
  1 24  1  0
  1 25  1  0
  1 26  1  0
  3 27  1  0
  3 28  1  0
  4 29  1  0
  4 30  1  0
  5 31  1  0
  5 32  1  0
  7 33  1  0
  7 34  1  0
  7 35  1  0
 11 36  1  0
 13 37  1  0
 18 38  1  0
 18 39  1  0
 20 40  1  0
 21 41  1  0
M  END
>  <Energy>  (417) 
128.24196614930219

>  <compound_id>  (417) 
17300

>  <target_id>  (417) 
1

>  <reference_id>  (417) 
96

>  <inspiration_ids>  (417) 
[96, 59]

>  <energy_score>  (417) 
107.33668967123572

>  <distance_score>  (417) 
11.64751638625512

>  <path>  (417) 
/opt/xchem-fragalysis-2/maxwin/BulkDock/SCRATCH/511014/C17300-P96/C17300-P96.minimised.mol

>  <scratch_subdir>  (417) 
/opt/xchem-fragalysis-2/maxwin/BulkDock/SCRATCH/511014/C17300-P96

>  <fragmenstein_runtime>  (417) 
11.62560224533081

>  <fragmenstein_outcome>  (417) 
too moved

>  <fragmenstein_mode>  (417) 
expansion

>  <fragmenstein_error>  (417) 


$$$$
C17300-P59
     RDKit          3D

 41 42  0  0  0  0  0  0  0  0999 V2000
  -10.7139   -8.7857   34.0680 C   0  0  0  0  0  0  0  0  0  0  0  0
   -9.6515   -9.4374   33.8509 N   0  0  0  0  0  0  0  0  0  0  0  0
   -9.0797   -7.5402   33.7350 C   0  0  0  0  0  0  0  0  0  0  0  0
   -8.5143   -6.2696   35.1435 C   0  0  0  0  0  0  0  0  0  0  0  0
   -7.2467   -4.7191   35.3791 C   0  0  0  0  0  0  0  0  0  0  0  0
   -6.8511   -2.7903   35.0688 N   0  0  0  0  0  0  0  0  0  0  0  0
   -7.9965   -2.5778   36.0739 C   0  0  0  0  0  0  0  0  0  0  0  0
   -5.6923   -1.9809   35.4723 C   0  0  0  0  0  0  0  0  0  0  0  0
   -4.7545   -2.2548   36.1682 O   0  0  0  0  0  0  0  0  0  0  0  0
   -5.6221   -0.6923   34.8590 C   0  0  0  0  0  0  0  0  0  0  0  0
   -4.6230   -0.4504   33.9512 N   0  0  0  0  0  0  0  0  0  0  0  0
   -4.4960    0.8404   33.6066 N   0  0  0  0  0  0  0  0  0  0  0  0
   -5.4160    1.4426   34.3683 C   0  0  0  0  0  0  0  0  0  0  0  0
   -6.1503    0.5384   35.1561 C   0  0  0  0  0  0  0  0  0  0  0  0
   -7.3051    0.9873   36.3108 Cl  0  0  0  0  0  0  0  0  0  0  0  0
   -9.1485  -10.6143   32.4069 C   0  0  0  0  0  0  0  0  0  0  0  0
   -9.8941  -10.7186   31.4813 O   0  0  0  0  0  0  0  0  0  0  0  0
   -7.5590  -11.9378   32.2771 C   0  0  0  0  0  0  0  0  0  0  0  0
   -7.0638  -13.5488   31.1512 C   0  0  0  0  0  0  0  0  0  0  0  0
   -6.4043  -13.7935   29.7265 C   0  0  0  0  0  0  0  0  0  0  0  0
   -5.4979  -14.8756   29.7188 C   0  0  0  0  0  0  0  0  0  0  0  0
   -5.4520  -15.3945   30.9208 N   0  0  0  0  0  0  0  0  0  0  0  0
   -6.3877  -14.7171   31.6799 O   0  0  0  0  0  0  0  0  0  0  0  0
  -11.4461   -9.5448   34.4013 H   0  0  0  0  0  0  0  0  0  0  0  0
  -10.8192   -7.9810   34.8154 H   0  0  0  0  0  0  0  0  0  0  0  0
  -10.5896   -8.5741   33.0056 H   0  0  0  0  0  0  0  0  0  0  0  0
   -8.2941   -7.3508   33.0052 H   0  0  0  0  0  0  0  0  0  0  0  0
   -9.9248   -7.0228   33.2983 H   0  0  0  0  0  0  0  0  0  0  0  0
   -9.4886   -5.9411   35.5479 H   0  0  0  0  0  0  0  0  0  0  0  0
   -8.1459   -6.9149   35.9375 H   0  0  0  0  0  0  0  0  0  0  0  0
   -7.7283   -4.4012   36.1434 H   0  0  0  0  0  0  0  0  0  0  0  0
   -6.4407   -5.1477   34.9083 H   0  0  0  0  0  0  0  0  0  0  0  0
   -8.2162   -1.5284   35.8191 H   0  0  0  0  0  0  0  0  0  0  0  0
   -9.0546   -2.8660   35.9845 H   0  0  0  0  0  0  0  0  0  0  0  0
   -7.6340   -2.3920   37.0971 H   0  0  0  0  0  0  0  0  0  0  0  0
   -3.9534   -1.1252   33.5918 H   0  0  0  0  0  0  0  0  0  0  0  0
   -5.5176    2.5194   34.3275 H   0  0  0  0  0  0  0  0  0  0  0  0
   -7.8929  -12.5832   33.0902 H   0  0  0  0  0  0  0  0  0  0  0  0
   -6.5797  -11.6250   32.6446 H   0  0  0  0  0  0  0  0  0  0  0  0
   -6.4706  -13.2142   28.8114 H   0  0  0  0  0  0  0  0  0  0  0  0
   -4.8843  -15.2654   28.9203 H   0  0  0  0  0  0  0  0  0  0  0  0
  1  2  1  0
  2  3  1  0
  3  4  1  0
  4  5  1  0
  5  6  1  0
  6  7  1  0
  6  8  1  0
  8  9  2  0
  8 10  1  0
 10 11  1  0
 11 12  1  0
 12 13  2  0
 13 14  1  0
 14 15  1  0
  2 16  1  0
 16 17  2  0
 16 18  1  0
 18 19  1  0
 19 20  2  0
 20 21  1  0
 21 22  2  0
 22 23  1  0
 14 10  2  0
 23 19  1  0
  1 24  1  0
  1 25  1  0
  1 26  1  0
  3 27  1  0
  3 28  1  0
  4 29  1  0
  4 30  1  0
  5 31  1  0
  5 32  1  0
  7 33  1  0
  7 34  1  0
  7 35  1  0
 11 36  1  0
 13 37  1  0
 18 38  1  0
 18 39  1  0
 20 40  1  0
 21 41  1  0
M  END
>  <Energy>  (418) 
831.50906459582848

>  <compound_id>  (418) 
17300

>  <target_id>  (418) 
1

>  <reference_id>  (418) 
59

>  <inspiration_ids>  (418) 
[96, 59]

>  <energy_score>  (418) 
810.6037881177521

>  <distance_score>  (418) 
8.398178276769762

>  <path>  (418) 
/opt/xchem-fragalysis-2/maxwin/BulkDock/SCRATCH/511014/C17300-P59/C17300-P59.minimised.mol

>  <scratch_subdir>  (418) 
/opt/xchem-fragalysis-2/maxwin/BulkDock/SCRATCH/511014/C17300-P59

>  <fragmenstein_runtime>  (418) 
24.098999500274658

>  <fragmenstein_outcome>  (418) 
too moved

>  <fragmenstein_mode>  (418) 
expansion

>  <fragmenstein_error>  (418) 


$$$$
C17303-P96
     RDKit          3D

 41 42  0  0  0  0  0  0  0  0999 V2000
   -9.7490   -8.9741   29.9822 C   0  0  0  0  0  0  0  0  0  0  0  0
   -7.8896   -9.7172   30.4871 C   0  0  0  0  0  0  0  0  0  0  0  0
   -6.2974   -8.9446   29.8813 C   0  0  0  0  0  0  0  0  0  0  0  0
   -5.2836   -7.4961   30.3951 N   0  0  0  0  0  0  0  0  0  0  0  0
   -3.9120   -7.1029   30.0404 C   0  0  0  0  0  0  0  0  0  0  0  0
   -3.1417   -7.5845   29.2656 O   0  0  0  0  0  0  0  0  0  0  0  0
   -3.3735   -6.0100   30.8321 C   0  0  0  0  0  0  0  0  0  0  0  0
   -3.4479   -5.9045   32.1986 N   0  0  0  0  0  0  0  0  0  0  0  0
   -2.8540   -4.7966   32.7022 N   0  0  0  0  0  0  0  0  0  0  0  0
   -2.2808   -4.2432   31.6245 C   0  0  0  0  0  0  0  0  0  0  0  0
   -2.5609   -4.9580   30.4457 C   0  0  0  0  0  0  0  0  0  0  0  0
   -2.0340   -4.5327   28.8936 Cl  0  0  0  0  0  0  0  0  0  0  0  0
   -7.8045  -11.6710   31.2728 C   0  0  0  0  0  0  0  0  0  0  0  0
   -9.3713  -12.3551   31.4283 N   0  0  0  0  0  0  0  0  0  0  0  0
   -9.5564  -11.0729   31.9367 C   0  0  0  0  0  0  0  0  0  0  0  0
   -9.9622  -13.5084   32.4874 C   0  0  0  0  0  0  0  0  0  0  0  0
   -9.3972  -14.1077   33.4057 O   0  0  0  0  0  0  0  0  0  0  0  0
  -11.7221  -13.6803   32.1771 C   0  0  0  0  0  0  0  0  0  0  0  0
  -12.5664  -14.3944   33.2551 C   0  0  0  0  0  0  0  0  0  0  0  0
  -12.3214  -14.9600   34.4879 C   0  0  0  0  0  0  0  0  0  0  0  0
  -13.4344  -15.7892   34.7137 C   0  0  0  0  0  0  0  0  0  0  0  0
  -14.3386  -15.6997   33.7355 N   0  0  0  0  0  0  0  0  0  0  0  0
  -13.7868  -14.8287   32.8098 O   0  0  0  0  0  0  0  0  0  0  0  0
   -9.9078   -8.8074   28.9013 H   0  0  0  0  0  0  0  0  0  0  0  0
  -10.1017   -7.9589   30.2951 H   0  0  0  0  0  0  0  0  0  0  0  0
  -10.4171   -9.4180   30.5749 H   0  0  0  0  0  0  0  0  0  0  0  0
   -8.0747   -9.0330   31.2692 H   0  0  0  0  0  0  0  0  0  0  0  0
   -5.6466   -9.7047   29.4430 H   0  0  0  0  0  0  0  0  0  0  0  0
   -6.2517   -8.8702   30.9061 H   0  0  0  0  0  0  0  0  0  0  0  0
   -5.6139   -6.9052   31.1599 H   0  0  0  0  0  0  0  0  0  0  0  0
   -3.8730   -6.5640   32.8514 H   0  0  0  0  0  0  0  0  0  0  0  0
   -1.6929   -3.3406   31.7342 H   0  0  0  0  0  0  0  0  0  0  0  0
   -7.4716  -11.5969   32.2910 H   0  0  0  0  0  0  0  0  0  0  0  0
   -7.4557  -12.2849   30.4120 H   0  0  0  0  0  0  0  0  0  0  0  0
  -10.2177  -10.8845   31.2386 H   0  0  0  0  0  0  0  0  0  0  0  0
   -9.3011  -10.1628   31.5167 H   0  0  0  0  0  0  0  0  0  0  0  0
   -8.9457  -10.3629   32.4638 H   0  0  0  0  0  0  0  0  0  0  0  0
  -11.9157  -14.0666   31.1625 H   0  0  0  0  0  0  0  0  0  0  0  0
  -12.2578  -12.7561   32.1585 H   0  0  0  0  0  0  0  0  0  0  0  0
  -11.4066  -14.8995   35.0583 H   0  0  0  0  0  0  0  0  0  0  0  0
  -13.6209  -16.4606   35.5396 H   0  0  0  0  0  0  0  0  0  0  0  0
  1  2  1  0
  2  3  1  0
  3  4  1  0
  4  5  1  0
  5  6  2  0
  5  7  1  0
  7  8  1  0
  8  9  1  0
  9 10  2  0
 10 11  1  0
 11 12  1  0
  2 13  1  0
 13 14  1  0
 14 15  1  0
 14 16  1  0
 16 17  2  0
 16 18  1  0
 18 19  1  0
 19 20  2  0
 20 21  1  0
 21 22  2  0
 22 23  1  0
 11  7  2  0
 23 19  1  0
  1 24  1  0
  1 25  1  0
  1 26  1  0
  2 27  1  0
  3 28  1  0
  3 29  1  0
  4 30  1  0
  8 31  1  0
 10 32  1  0
 13 33  1  0
 13 34  1  0
 15 35  1  0
 15 36  1  0
 15 37  1  0
 18 38  1  0
 18 39  1  0
 20 40  1  0
 21 41  1  0
M  END
>  <Energy>  (419) 
557.17991182838648

>  <compound_id>  (419) 
17303

>  <target_id>  (419) 
1

>  <reference_id>  (419) 
96

>  <inspiration_ids>  (419) 
[96, 59]

>  <energy_score>  (419) 
569.1506200634831

>  <distance_score>  (419) 
8.904554656695618

>  <path>  (419) 
/opt/xchem-fragalysis-2/maxwin/BulkDock/SCRATCH/511014/C17303-P96/C17303-P96.minimised.mol

>  <scratch_subdir>  (419) 
/opt/xchem-fragalysis-2/maxwin/BulkDock/SCRATCH/511014/C17303-P96

>  <fragmenstein_runtime>  (419) 
12.674436569213867

>  <fragmenstein_outcome>  (419) 
too moved

>  <fragmenstein_mode>  (419) 
expansion

>  <fragmenstein_error>  (419) 


$$$$
C17303-P59
     RDKit          3D

 41 42  0  0  0  0  0  0  0  0999 V2000
  -11.8381   -6.7440   29.3535 C   0  0  0  0  0  0  0  0  0  0  0  0
  -12.1811   -7.6588   28.1648 C   0  0  0  0  0  0  0  0  0  0  0  0
  -11.4878   -7.1995   26.8542 C   0  0  0  0  0  0  0  0  0  0  0  0
  -11.1277   -5.7942   26.8186 N   0  0  0  0  0  0  0  0  0  0  0  0
   -9.8659   -5.1541   26.9251 C   0  0  0  0  0  0  0  0  0  0  0  0
   -8.7679   -5.6097   26.9924 O   0  0  0  0  0  0  0  0  0  0  0  0
   -9.9441   -3.7000   27.0719 C   0  0  0  0  0  0  0  0  0  0  0  0
   -8.8645   -2.9894   27.5591 N   0  0  0  0  0  0  0  0  0  0  0  0
   -9.0346   -1.6633   27.6386 N   0  0  0  0  0  0  0  0  0  0  0  0
  -10.2766   -1.4992   27.1876 C   0  0  0  0  0  0  0  0  0  0  0  0
  -10.8908   -2.7255   26.8479 C   0  0  0  0  0  0  0  0  0  0  0  0
  -12.4764   -2.8912   26.2696 Cl  0  0  0  0  0  0  0  0  0  0  0  0
  -13.7322   -7.8081   27.9416 C   0  0  0  0  0  0  0  0  0  0  0  0
  -14.2358   -9.2885   28.0747 N   0  0  0  0  0  0  0  0  0  0  0  0
  -15.5038   -8.6771   27.5397 C   0  0  0  0  0  0  0  0  0  0  0  0
  -13.8929  -10.4831   27.3083 C   0  0  0  0  0  0  0  0  0  0  0  0
  -13.2074  -10.6108   26.3286 O   0  0  0  0  0  0  0  0  0  0  0  0
  -14.6835  -11.6814   27.9074 C   0  0  0  0  0  0  0  0  0  0  0  0
  -14.0800  -13.0603   27.9079 C   0  0  0  0  0  0  0  0  0  0  0  0
  -14.2551  -14.1282   28.7678 C   0  0  0  0  0  0  0  0  0  0  0  0
  -13.5177  -15.1712   28.1965 C   0  0  0  0  0  0  0  0  0  0  0  0
  -12.9335  -14.8012   27.0577 N   0  0  0  0  0  0  0  0  0  0  0  0
  -13.2969  -13.4700   26.8691 O   0  0  0  0  0  0  0  0  0  0  0  0
  -12.3652   -7.0486   30.2610 H   0  0  0  0  0  0  0  0  0  0  0  0
  -12.1088   -5.7001   29.1684 H   0  0  0  0  0  0  0  0  0  0  0  0
  -10.7689   -6.8170   29.5512 H   0  0  0  0  0  0  0  0  0  0  0  0
  -11.7941   -8.6588   28.3962 H   0  0  0  0  0  0  0  0  0  0  0  0
  -12.0716   -7.4258   25.9569 H   0  0  0  0  0  0  0  0  0  0  0  0
  -10.5459   -7.7545   26.7629 H   0  0  0  0  0  0  0  0  0  0  0  0
  -11.8456   -5.0890   26.7003 H   0  0  0  0  0  0  0  0  0  0  0  0
   -7.9748   -3.3746   27.8476 H   0  0  0  0  0  0  0  0  0  0  0  0
  -10.6893   -0.4992   27.1344 H   0  0  0  0  0  0  0  0  0  0  0  0
  -14.2094   -7.2112   28.7344 H   0  0  0  0  0  0  0  0  0  0  0  0
  -13.9245   -7.3679   26.9513 H   0  0  0  0  0  0  0  0  0  0  0  0
  -16.2554   -9.4778   27.5952 H   0  0  0  0  0  0  0  0  0  0  0  0
  -15.4621   -8.4531   26.4630 H   0  0  0  0  0  0  0  0  0  0  0  0
  -15.9519   -7.8824   28.1537 H   0  0  0  0  0  0  0  0  0  0  0  0
  -15.6199  -11.7411   27.3373 H   0  0  0  0  0  0  0  0  0  0  0  0
  -14.9635  -11.4389   28.9396 H   0  0  0  0  0  0  0  0  0  0  0  0
  -14.8420  -14.1411   29.6735 H   0  0  0  0  0  0  0  0  0  0  0  0
  -13.3805  -16.1777   28.5586 H   0  0  0  0  0  0  0  0  0  0  0  0
  1  2  1  0
  2  3  1  0
  3  4  1  0
  4  5  1  0
  5  6  2  0
  5  7  1  0
  7  8  1  0
  8  9  1  0
  9 10  2  0
 10 11  1  0
 11 12  1  0
  2 13  1  0
 13 14  1  0
 14 15  1  0
 14 16  1  0
 16 17  2  0
 16 18  1  0
 18 19  1  0
 19 20  2  0
 20 21  1  0
 21 22  2  0
 22 23  1  0
 11  7  2  0
 23 19  1  0
  1 24  1  0
  1 25  1  0
  1 26  1  0
  2 27  1  0
  3 28  1  0
  3 29  1  0
  4 30  1  0
  8 31  1  0
 10 32  1  0
 13 33  1  0
 13 34  1  0
 15 35  1  0
 15 36  1  0
 15 37  1  0
 18 38  1  0
 18 39  1  0
 20 40  1  0
 21 41  1  0
M  END
>  <Energy>  (420) 
54.414385448873738

>  <compound_id>  (420) 
17303

>  <target_id>  (420) 
1

>  <reference_id>  (420) 
59

>  <inspiration_ids>  (420) 
[96, 59]

>  <energy_score>  (420) 
66.3850936839703

>  <distance_score>  (420) 
10.602769119369615

>  <path>  (420) 
/opt/xchem-fragalysis-2/maxwin/BulkDock/SCRATCH/511014/C17303-P59/C17303-P59.minimised.mol

>  <scratch_subdir>  (420) 
/opt/xchem-fragalysis-2/maxwin/BulkDock/SCRATCH/511014/C17303-P59

>  <fragmenstein_runtime>  (420) 
30.866153240203857

>  <fragmenstein_outcome>  (420) 
too moved

>  <fragmenstein_mode>  (420) 
expansion

>  <fragmenstein_error>  (420) 


$$$$
C17305-P96
     RDKit          3D

 41 42  0  0  0  0  0  0  0  0999 V2000
   -4.1911  -10.4665   40.0665 C   0  0  0  0  0  0  0  0  0  0  0  0
   -4.1854  -10.1502   38.5710 C   0  0  0  0  0  0  0  0  0  0  0  0
   -5.3754   -9.2333   38.3397 C   0  0  0  0  0  0  0  0  0  0  0  0
   -4.2011  -11.5018   37.7355 C   0  0  0  0  0  0  0  0  0  0  0  0
   -5.4265  -12.2470   37.4177 N   0  0  0  0  0  0  0  0  0  0  0  0
   -5.6526  -13.6860   37.2205 C   0  0  0  0  0  0  0  0  0  0  0  0
   -4.9082  -14.6178   37.3496 O   0  0  0  0  0  0  0  0  0  0  0  0
   -7.0914  -13.9429   36.6627 C   0  0  0  0  0  0  0  0  0  0  0  0
   -7.2967  -15.2183   35.8588 C   0  0  0  0  0  0  0  0  0  0  0  0
   -6.6228  -16.4019   35.6350 C   0  0  0  0  0  0  0  0  0  0  0  0
   -7.4390  -17.1326   34.7482 C   0  0  0  0  0  0  0  0  0  0  0  0
   -8.5740  -16.4886   34.4816 N   0  0  0  0  0  0  0  0  0  0  0  0
   -8.4795  -15.2822   35.1588 O   0  0  0  0  0  0  0  0  0  0  0  0
   -2.8348   -9.4453   38.2298 C   0  0  0  0  0  0  0  0  0  0  0  0
   -2.6067   -8.1036   38.7288 N   0  0  0  0  0  0  0  0  0  0  0  0
   -1.4073   -7.4517   39.1490 C   0  0  0  0  0  0  0  0  0  0  0  0
   -0.2954   -7.8701   39.2731 O   0  0  0  0  0  0  0  0  0  0  0  0
   -1.5794   -6.0215   39.3628 C   0  0  0  0  0  0  0  0  0  0  0  0
   -0.5239   -5.1656   39.1465 N   0  0  0  0  0  0  0  0  0  0  0  0
   -0.8584   -3.8625   39.1129 N   0  0  0  0  0  0  0  0  0  0  0  0
   -2.1168   -3.8719   39.5634 C   0  0  0  0  0  0  0  0  0  0  0  0
   -2.5878   -5.1838   39.7941 C   0  0  0  0  0  0  0  0  0  0  0  0
   -4.0794   -5.5682   40.5064 Cl  0  0  0  0  0  0  0  0  0  0  0  0
   -5.1105  -10.9894   40.3546 H   0  0  0  0  0  0  0  0  0  0  0  0
   -4.1144   -9.5623   40.6814 H   0  0  0  0  0  0  0  0  0  0  0  0
   -3.3499  -11.1144   40.3392 H   0  0  0  0  0  0  0  0  0  0  0  0
   -6.3246   -9.7777   38.3414 H   0  0  0  0  0  0  0  0  0  0  0  0
   -5.4520   -8.4763   39.1296 H   0  0  0  0  0  0  0  0  0  0  0  0
   -5.2637   -8.6867   37.4064 H   0  0  0  0  0  0  0  0  0  0  0  0
   -3.7792  -11.2941   36.7445 H   0  0  0  0  0  0  0  0  0  0  0  0
   -3.5107  -12.2206   38.1947 H   0  0  0  0  0  0  0  0  0  0  0  0
   -6.2553  -11.7403   37.1373 H   0  0  0  0  0  0  0  0  0  0  0  0
   -7.3710  -13.1024   36.0169 H   0  0  0  0  0  0  0  0  0  0  0  0
   -7.7726  -13.9568   37.5211 H   0  0  0  0  0  0  0  0  0  0  0  0
   -5.6638  -16.6882   36.0397 H   0  0  0  0  0  0  0  0  0  0  0  0
   -7.2628  -18.0971   34.2936 H   0  0  0  0  0  0  0  0  0  0  0  0
   -2.7480   -9.3463   37.1405 H   0  0  0  0  0  0  0  0  0  0  0  0
   -1.9874  -10.0636   38.5504 H   0  0  0  0  0  0  0  0  0  0  0  0
   -3.3571   -7.4097   38.6613 H   0  0  0  0  0  0  0  0  0  0  0  0
    0.4312   -5.4376   38.9307 H   0  0  0  0  0  0  0  0  0  0  0  0
   -2.6283   -2.9288   39.7208 H   0  0  0  0  0  0  0  0  0  0  0  0
  1  2  1  0
  2  3  1  0
  2  4  1  0
  4  5  1  0
  5  6  1  0
  6  7  2  0
  6  8  1  0
  8  9  1  0
  9 10  2  0
 10 11  1  0
 11 12  2  0
 12 13  1  0
  2 14  1  0
 14 15  1  0
 15 16  1  0
 16 17  2  0
 16 18  1  0
 18 19  1  0
 19 20  1  0
 20 21  2  0
 21 22  1  0
 22 23  1  0
 13  9  1  0
 22 18  2  0
  1 24  1  0
  1 25  1  0
  1 26  1  0
  3 27  1  0
  3 28  1  0
  3 29  1  0
  4 30  1  0
  4 31  1  0
  5 32  1  0
  8 33  1  0
  8 34  1  0
 10 35  1  0
 11 36  1  0
 14 37  1  0
 14 38  1  0
 15 39  1  0
 19 40  1  0
 21 41  1  0
M  END
>  <Energy>  (421) 
-8.3192909985688068

>  <compound_id>  (421) 
17305

>  <target_id>  (421) 
1

>  <reference_id>  (421) 
96

>  <inspiration_ids>  (421) 
[96, 59]

>  <energy_score>  (421) 
-30.121828937810733

>  <distance_score>  (421) 
10.639913599490118

>  <path>  (421) 
/opt/xchem-fragalysis-2/maxwin/BulkDock/SCRATCH/511014/C17305-P96/C17305-P96.minimised.mol

>  <scratch_subdir>  (421) 
/opt/xchem-fragalysis-2/maxwin/BulkDock/SCRATCH/511014/C17305-P96

>  <fragmenstein_runtime>  (421) 
16.821805477142334

>  <fragmenstein_outcome>  (421) 
too moved

>  <fragmenstein_mode>  (421) 
expansion

>  <fragmenstein_error>  (421) 


$$$$
C17305-P59
     RDKit          3D

 41 42  0  0  0  0  0  0  0  0999 V2000
   -0.9265   -9.8079   30.8541 C   0  0  0  0  0  0  0  0  0  0  0  0
   -0.4222  -11.0025   30.0076 C   0  0  0  0  0  0  0  0  0  0  0  0
    0.1507  -12.0578   30.9900 C   0  0  0  0  0  0  0  0  0  0  0  0
   -1.4290  -11.8436   29.0219 C   0  0  0  0  0  0  0  0  0  0  0  0
   -2.8702  -12.1545   29.3029 N   0  0  0  0  0  0  0  0  0  0  0  0
   -3.5241  -13.4022   29.7667 C   0  0  0  0  0  0  0  0  0  0  0  0
   -3.0389  -14.4658   30.1135 O   0  0  0  0  0  0  0  0  0  0  0  0
   -5.5800  -13.2788   29.8093 C   0  0  0  0  0  0  0  0  0  0  0  0
   -7.0033  -13.7581   28.5566 C   0  0  0  0  0  0  0  0  0  0  0  0
   -7.3013  -13.4161   27.1945 C   0  0  0  0  0  0  0  0  0  0  0  0
   -8.3570  -14.2965   26.7527 C   0  0  0  0  0  0  0  0  0  0  0  0
   -8.4512  -15.1545   27.7014 N   0  0  0  0  0  0  0  0  0  0  0  0
   -8.2760  -14.1886   28.7752 O   0  0  0  0  0  0  0  0  0  0  0  0
    0.8224  -10.4997   29.1316 C   0  0  0  0  0  0  0  0  0  0  0  0
    1.2359   -9.1039   29.2974 N   0  0  0  0  0  0  0  0  0  0  0  0
    1.7982   -8.4159   30.4245 C   0  0  0  0  0  0  0  0  0  0  0  0
    2.1461   -8.8234   31.4913 O   0  0  0  0  0  0  0  0  0  0  0  0
    1.8411   -6.9790   30.2094 C   0  0  0  0  0  0  0  0  0  0  0  0
    1.3624   -6.0891   31.1437 N   0  0  0  0  0  0  0  0  0  0  0  0
    1.3477   -4.8079   30.7279 N   0  0  0  0  0  0  0  0  0  0  0  0
    2.0145   -4.8557   29.5718 C   0  0  0  0  0  0  0  0  0  0  0  0
    2.3574   -6.1766   29.2130 C   0  0  0  0  0  0  0  0  0  0  0  0
    3.2290   -6.6313   27.8324 Cl  0  0  0  0  0  0  0  0  0  0  0  0
   -1.8702   -9.9753   31.3460 H   0  0  0  0  0  0  0  0  0  0  0  0
   -0.9866   -8.8852   30.2730 H   0  0  0  0  0  0  0  0  0  0  0  0
   -0.2394   -9.6022   31.6822 H   0  0  0  0  0  0  0  0  0  0  0  0
   -0.6426  -12.5516   31.5482 H   0  0  0  0  0  0  0  0  0  0  0  0
    0.6967  -12.8447   30.4560 H   0  0  0  0  0  0  0  0  0  0  0  0
    0.8484  -11.6101   31.7063 H   0  0  0  0  0  0  0  0  0  0  0  0
   -0.9652  -12.8227   28.8431 H   0  0  0  0  0  0  0  0  0  0  0  0
   -1.4337  -11.3606   28.0420 H   0  0  0  0  0  0  0  0  0  0  0  0
   -3.5748  -11.5045   29.0199 H   0  0  0  0  0  0  0  0  0  0  0  0
   -6.0155  -13.8344   30.6570 H   0  0  0  0  0  0  0  0  0  0  0  0
   -5.5655  -12.1958   29.5831 H   0  0  0  0  0  0  0  0  0  0  0  0
   -6.7512  -12.7294   26.5731 H   0  0  0  0  0  0  0  0  0  0  0  0
   -8.8248  -14.5826   25.8258 H   0  0  0  0  0  0  0  0  0  0  0  0
    1.7116  -11.1042   29.3427 H   0  0  0  0  0  0  0  0  0  0  0  0
    0.6061  -10.6110   28.0641 H   0  0  0  0  0  0  0  0  0  0  0  0
    1.1386   -8.4508   28.5256 H   0  0  0  0  0  0  0  0  0  0  0  0
    0.9953   -6.3099   32.0650 H   0  0  0  0  0  0  0  0  0  0  0  0
    2.2199   -3.9337   29.0421 H   0  0  0  0  0  0  0  0  0  0  0  0
  1  2  1  0
  2  3  1  0
  2  4  1  0
  4  5  1  0
  5  6  1  0
  6  7  2  0
  6  8  1  0
  8  9  1  0
  9 10  2  0
 10 11  1  0
 11 12  2  0
 12 13  1  0
  2 14  1  0
 14 15  1  0
 15 16  1  0
 16 17  2  0
 16 18  1  0
 18 19  1  0
 19 20  1  0
 20 21  2  0
 21 22  1  0
 22 23  1  0
 13  9  1  0
 22 18  2  0
  1 24  1  0
  1 25  1  0
  1 26  1  0
  3 27  1  0
  3 28  1  0
  3 29  1  0
  4 30  1  0
  4 31  1  0
  5 32  1  0
  8 33  1  0
  8 34  1  0
 10 35  1  0
 11 36  1  0
 14 37  1  0
 14 38  1  0
 15 39  1  0
 19 40  1  0
 21 41  1  0
M  END
>  <Energy>  (422) 
195.8876755666476

>  <compound_id>  (422) 
17305

>  <target_id>  (422) 
1

>  <reference_id>  (422) 
59

>  <inspiration_ids>  (422) 
[96, 59]

>  <energy_score>  (422) 
174.08513762740404

>  <distance_score>  (422) 
9.814385191356035

>  <path>  (422) 
/opt/xchem-fragalysis-2/maxwin/BulkDock/SCRATCH/511014/C17305-P59/C17305-P59.minimised.mol

>  <scratch_subdir>  (422) 
/opt/xchem-fragalysis-2/maxwin/BulkDock/SCRATCH/511014/C17305-P59

>  <fragmenstein_runtime>  (422) 
27.600076913833618

>  <fragmenstein_outcome>  (422) 
too moved

>  <fragmenstein_mode>  (422) 
expansion

>  <fragmenstein_error>  (422) 


$$$$
C17312-P96
     RDKit          3D

 41 42  0  0  0  0  0  0  0  0999 V2000
   -2.3435   -5.0144   28.4483 C   0  0  0  0  0  0  0  0  0  0  0  0
   -2.2215   -5.6107   29.8474 C   0  0  0  0  0  0  0  0  0  0  0  0
   -2.6932   -7.1117   30.1783 C   0  0  0  0  0  0  0  0  0  0  0  0
   -2.6403   -7.5384   31.3027 O   0  0  0  0  0  0  0  0  0  0  0  0
   -3.0546   -7.7952   28.8940 N   0  0  0  0  0  0  0  0  0  0  0  0
   -1.8912   -8.3172   28.2905 C   0  0  0  0  0  0  0  0  0  0  0  0
   -3.7236   -9.6020   28.5434 C   0  0  0  0  0  0  0  0  0  0  0  0
   -5.3604  -10.7819   28.6683 C   0  0  0  0  0  0  0  0  0  0  0  0
   -6.4433  -12.2855   28.2127 N   0  0  0  0  0  0  0  0  0  0  0  0
   -6.1416  -13.9774   28.3364 C   0  0  0  0  0  0  0  0  0  0  0  0
   -5.1784  -14.4887   28.8394 O   0  0  0  0  0  0  0  0  0  0  0  0
   -7.3264  -15.3451   27.4772 C   0  0  0  0  0  0  0  0  0  0  0  0
   -7.7912  -17.2683   27.3727 C   0  0  0  0  0  0  0  0  0  0  0  0
   -6.5836  -18.4111   26.5354 C   0  0  0  0  0  0  0  0  0  0  0  0
   -6.5323  -19.6816   26.9347 C   0  0  0  0  0  0  0  0  0  0  0  0
   -7.7111  -19.8597   27.4174 N   0  0  0  0  0  0  0  0  0  0  0  0
   -8.4458  -18.1811   28.0118 O   0  0  0  0  0  0  0  0  0  0  0  0
   -2.2804   -4.5503   30.8866 N   0  0  0  0  0  0  0  0  0  0  0  0
   -2.4209   -3.2002   30.6068 C   0  0  0  0  0  0  0  0  0  0  0  0
   -1.5975   -2.5074   31.4495 C   0  0  0  0  0  0  0  0  0  0  0  0
   -1.2525   -0.8570   31.4796 Cl  0  0  0  0  0  0  0  0  0  0  0  0
   -1.0153   -3.5014   32.2207 C   0  0  0  0  0  0  0  0  0  0  0  0
   -1.5363   -4.7083   31.9938 N   0  0  0  0  0  0  0  0  0  0  0  0
   -3.3827   -4.8893   28.1977 H   0  0  0  0  0  0  0  0  0  0  0  0
   -1.8302   -4.0542   28.3330 H   0  0  0  0  0  0  0  0  0  0  0  0
   -1.8839   -5.6362   27.6767 H   0  0  0  0  0  0  0  0  0  0  0  0
   -1.1449   -5.8136   29.8593 H   0  0  0  0  0  0  0  0  0  0  0  0
   -1.9840   -8.3988   27.2106 H   0  0  0  0  0  0  0  0  0  0  0  0
   -1.2834   -8.8965   28.9888 H   0  0  0  0  0  0  0  0  0  0  0  0
   -1.1763   -7.4764   28.2627 H   0  0  0  0  0  0  0  0  0  0  0  0
   -4.4493   -9.1024   29.1647 H   0  0  0  0  0  0  0  0  0  0  0  0
   -3.6795   -9.6528   27.4608 H   0  0  0  0  0  0  0  0  0  0  0  0
   -5.8958  -10.3258   29.4949 H   0  0  0  0  0  0  0  0  0  0  0  0
   -5.7495  -10.3077   27.7861 H   0  0  0  0  0  0  0  0  0  0  0  0
   -7.2862  -12.1362   27.6697 H   0  0  0  0  0  0  0  0  0  0  0  0
   -6.4039  -15.7492   28.0741 H   0  0  0  0  0  0  0  0  0  0  0  0
   -6.5386  -15.9379   27.1232 H   0  0  0  0  0  0  0  0  0  0  0  0
   -5.7210  -18.0192   26.0360 H   0  0  0  0  0  0  0  0  0  0  0  0
   -5.8641  -20.5106   26.7530 H   0  0  0  0  0  0  0  0  0  0  0  0
   -2.9656   -2.8410   29.7551 H   0  0  0  0  0  0  0  0  0  0  0  0
   -0.2154   -3.4051   32.9312 H   0  0  0  0  0  0  0  0  0  0  0  0
  1  2  1  0
  2  3  1  0
  3  4  2  0
  3  5  1  0
  5  6  1  0
  5  7  1  0
  7  8  1  0
  8  9  1  0
  9 10  1  0
 10 11  2  0
 10 12  1  0
 12 13  1  0
 13 14  2  0
 14 15  1  0
 15 16  2  0
 16 17  1  0
  2 18  1  0
 18 19  1  0
 19 20  2  0
 20 21  1  0
 20 22  1  0
 22 23  2  0
 17 13  1  0
 23 18  1  0
  1 24  1  0
  1 25  1  0
  1 26  1  0
  2 27  1  0
  6 28  1  0
  6 29  1  0
  6 30  1  0
  7 31  1  0
  7 32  1  0
  8 33  1  0
  8 34  1  0
  9 35  1  0
 12 36  1  0
 12 37  1  0
 14 38  1  0
 15 39  1  0
 19 40  1  0
 22 41  1  0
M  END
>  <Energy>  (423) 
872.63350499129865

>  <compound_id>  (423) 
17312

>  <target_id>  (423) 
1

>  <reference_id>  (423) 
96

>  <inspiration_ids>  (423) 
[96, 59]

>  <energy_score>  (423) 
792.1621146618847

>  <distance_score>  (423) 
7.701128026829188

>  <path>  (423) 
/opt/xchem-fragalysis-2/maxwin/BulkDock/SCRATCH/511014/C17312-P96/C17312-P96.minimised.mol

>  <scratch_subdir>  (423) 
/opt/xchem-fragalysis-2/maxwin/BulkDock/SCRATCH/511014/C17312-P96

>  <fragmenstein_runtime>  (423) 
13.060707807540894

>  <fragmenstein_outcome>  (423) 
too moved

>  <fragmenstein_mode>  (423) 
expansion

>  <fragmenstein_error>  (423) 


$$$$
C17312-P59
     RDKit          3D

 41 42  0  0  0  0  0  0  0  0999 V2000
   -3.6450   -0.9843   31.8893 C   0  0  0  0  0  0  0  0  0  0  0  0
   -4.8569   -1.9879   31.9482 C   0  0  0  0  0  0  0  0  0  0  0  0
   -4.6193   -3.2921   31.1148 C   0  0  0  0  0  0  0  0  0  0  0  0
   -3.4971   -3.7611   31.3968 O   0  0  0  0  0  0  0  0  0  0  0  0
   -5.8765   -4.1288   29.9963 N   0  0  0  0  0  0  0  0  0  0  0  0
   -5.7065   -3.7310   28.6551 C   0  0  0  0  0  0  0  0  0  0  0  0
   -5.8713   -5.9336   29.1348 C   0  0  0  0  0  0  0  0  0  0  0  0
   -5.7184   -8.0076   28.9930 C   0  0  0  0  0  0  0  0  0  0  0  0
   -6.6810   -9.7683   29.0413 N   0  0  0  0  0  0  0  0  0  0  0  0
   -5.9802  -11.6119   29.0881 C   0  0  0  0  0  0  0  0  0  0  0  0
   -4.7756  -11.9125   29.2058 O   0  0  0  0  0  0  0  0  0  0  0  0
   -7.0979  -13.3368   28.7502 C   0  0  0  0  0  0  0  0  0  0  0  0
   -8.4433  -13.8948   27.6485 C   0  0  0  0  0  0  0  0  0  0  0  0
   -8.6615  -14.8876   26.6590 C   0  0  0  0  0  0  0  0  0  0  0  0
   -9.9738  -15.3995   26.7389 C   0  0  0  0  0  0  0  0  0  0  0  0
  -10.7376  -14.4806   27.3767 N   0  0  0  0  0  0  0  0  0  0  0  0
   -9.7681  -13.6293   27.9777 O   0  0  0  0  0  0  0  0  0  0  0  0
   -5.8859   -1.5653   32.9345 N   0  0  0  0  0  0  0  0  0  0  0  0
   -5.6605   -1.4383   34.3026 C   0  0  0  0  0  0  0  0  0  0  0  0
   -6.7685   -0.8382   34.8294 C   0  0  0  0  0  0  0  0  0  0  0  0
   -7.1055   -0.4790   36.4430 Cl  0  0  0  0  0  0  0  0  0  0  0  0
   -7.5630   -0.5634   33.7154 C   0  0  0  0  0  0  0  0  0  0  0  0
   -7.0217   -0.9790   32.5621 N   0  0  0  0  0  0  0  0  0  0  0  0
   -3.6470   -0.2930   32.7373 H   0  0  0  0  0  0  0  0  0  0  0  0
   -2.6871   -1.5181   31.9218 H   0  0  0  0  0  0  0  0  0  0  0  0
   -3.6132   -0.4007   30.9686 H   0  0  0  0  0  0  0  0  0  0  0  0
   -4.3946   -2.5514   32.7905 H   0  0  0  0  0  0  0  0  0  0  0  0
   -4.7029   -3.4150   28.5010 H   0  0  0  0  0  0  0  0  0  0  0  0
   -5.7427   -2.8486   28.0683 H   0  0  0  0  0  0  0  0  0  0  0  0
   -6.7889   -3.5752   28.5078 H   0  0  0  0  0  0  0  0  0  0  0  0
   -6.3079   -5.6332   28.1711 H   0  0  0  0  0  0  0  0  0  0  0  0
   -6.3906   -6.2138   30.0513 H   0  0  0  0  0  0  0  0  0  0  0  0
   -5.3980   -8.1125   27.9293 H   0  0  0  0  0  0  0  0  0  0  0  0
   -4.6722   -7.9497   29.2067 H   0  0  0  0  0  0  0  0  0  0  0  0
   -7.6627   -9.7835   28.8586 H   0  0  0  0  0  0  0  0  0  0  0  0
   -7.2841  -13.7331   29.7757 H   0  0  0  0  0  0  0  0  0  0  0  0
   -6.5804  -14.2875   28.6992 H   0  0  0  0  0  0  0  0  0  0  0  0
   -8.0327  -15.2193   25.8618 H   0  0  0  0  0  0  0  0  0  0  0  0
  -10.4385  -16.2239   26.2235 H   0  0  0  0  0  0  0  0  0  0  0  0
   -4.7516   -1.8024   34.7637 H   0  0  0  0  0  0  0  0  0  0  0  0
   -8.5094   -0.0471   33.7010 H   0  0  0  0  0  0  0  0  0  0  0  0
  1  2  1  0
  2  3  1  0
  3  4  2  0
  3  5  1  0
  5  6  1  0
  5  7  1  0
  7  8  1  0
  8  9  1  0
  9 10  1  0
 10 11  2  0
 10 12  1  0
 12 13  1  0
 13 14  2  0
 14 15  1  0
 15 16  2  0
 16 17  1  0
  2 18  1  0
 18 19  1  0
 19 20  2  0
 20 21  1  0
 20 22  1  0
 22 23  2  0
 17 13  1  0
 23 18  1  0
  1 24  1  0
  1 25  1  0
  1 26  1  0
  2 27  1  0
  6 28  1  0
  6 29  1  0
  6 30  1  0
  7 31  1  0
  7 32  1  0
  8 33  1  0
  8 34  1  0
  9 35  1  0
 12 36  1  0
 12 37  1  0
 14 38  1  0
 15 39  1  0
 19 40  1  0
 22 41  1  0
M  END
>  <Energy>  (424) 
890.59211324934063

>  <compound_id>  (424) 
17312

>  <target_id>  (424) 
1

>  <reference_id>  (424) 
59

>  <inspiration_ids>  (424) 
[96, 59]

>  <energy_score>  (424) 
810.1207229199055

>  <distance_score>  (424) 
7.387399696044249

>  <path>  (424) 
/opt/xchem-fragalysis-2/maxwin/BulkDock/SCRATCH/511014/C17312-P59/C17312-P59.minimised.mol

>  <scratch_subdir>  (424) 
/opt/xchem-fragalysis-2/maxwin/BulkDock/SCRATCH/511014/C17312-P59

>  <fragmenstein_runtime>  (424) 
16.645774126052856

>  <fragmenstein_outcome>  (424) 
too moved

>  <fragmenstein_mode>  (424) 
expansion

>  <fragmenstein_error>  (424) 


$$$$
C17322-P96
     RDKit          3D

 38 39  0  0  0  0  0  0  0  0999 V2000
   -3.3961   -9.7283   36.1513 C   0  0  0  0  0  0  0  0  0  0  0  0
   -4.1979   -8.4691   36.7896 C   0  0  0  0  0  0  0  0  0  0  0  0
   -3.5935   -8.6901   38.2818 C   0  0  0  0  0  0  0  0  0  0  0  0
   -4.1019   -9.9881   39.0494 C   0  0  0  0  0  0  0  0  0  0  0  0
   -3.7177  -11.3492   38.6184 N   0  0  0  0  0  0  0  0  0  0  0  0
   -4.3407  -12.6595   38.8888 C   0  0  0  0  0  0  0  0  0  0  0  0
   -5.2693  -12.9529   39.5917 O   0  0  0  0  0  0  0  0  0  0  0  0
   -3.6591  -13.7893   38.0525 C   0  0  0  0  0  0  0  0  0  0  0  0
   -4.5784  -14.8625   37.4742 C   0  0  0  0  0  0  0  0  0  0  0  0
   -4.4213  -16.2175   37.2346 C   0  0  0  0  0  0  0  0  0  0  0  0
   -5.5521  -16.5885   36.4797 C   0  0  0  0  0  0  0  0  0  0  0  0
   -6.3666  -15.5516   36.2798 N   0  0  0  0  0  0  0  0  0  0  0  0
   -5.7630  -14.4769   36.9107 O   0  0  0  0  0  0  0  0  0  0  0  0
   -3.6639   -7.3023   35.7763 N   0  0  0  0  0  0  0  0  0  0  0  0
   -4.3484   -6.6565   34.3014 C   0  0  0  0  0  0  0  0  0  0  0  0
   -5.4219   -6.8823   33.7703 O   0  0  0  0  0  0  0  0  0  0  0  0
   -3.4247   -5.6672   33.3164 C   0  0  0  0  0  0  0  0  0  0  0  0
   -2.7228   -4.5233   33.5906 N   0  0  0  0  0  0  0  0  0  0  0  0
   -2.0079   -3.9069   32.6492 N   0  0  0  0  0  0  0  0  0  0  0  0
   -2.2698   -4.6488   31.5945 C   0  0  0  0  0  0  0  0  0  0  0  0
   -3.1532   -5.7087   31.9217 C   0  0  0  0  0  0  0  0  0  0  0  0
   -3.6295   -6.6305   30.5887 Cl  0  0  0  0  0  0  0  0  0  0  0  0
   -3.8347  -10.6986   36.3393 H   0  0  0  0  0  0  0  0  0  0  0  0
   -3.2489   -9.6615   35.0666 H   0  0  0  0  0  0  0  0  0  0  0  0
   -2.4004   -9.8436   36.5882 H   0  0  0  0  0  0  0  0  0  0  0  0
   -5.2790   -8.4272   36.9249 H   0  0  0  0  0  0  0  0  0  0  0  0
   -2.4961   -8.6733   38.2625 H   0  0  0  0  0  0  0  0  0  0  0  0
   -3.8666   -7.8875   38.9714 H   0  0  0  0  0  0  0  0  0  0  0  0
   -3.7450   -9.9161   40.0839 H   0  0  0  0  0  0  0  0  0  0  0  0
   -5.1957   -9.9632   39.1027 H   0  0  0  0  0  0  0  0  0  0  0  0
   -2.8994  -11.4842   38.0383 H   0  0  0  0  0  0  0  0  0  0  0  0
   -2.9255  -14.2683   38.7117 H   0  0  0  0  0  0  0  0  0  0  0  0
   -3.1093  -13.3478   37.2141 H   0  0  0  0  0  0  0  0  0  0  0  0
   -3.5835  -16.8354   37.5191 H   0  0  0  0  0  0  0  0  0  0  0  0
   -5.8131  -17.5518   36.0628 H   0  0  0  0  0  0  0  0  0  0  0  0
   -2.7994   -6.8521   35.9760 H   0  0  0  0  0  0  0  0  0  0  0  0
   -2.8904   -3.9444   34.3912 H   0  0  0  0  0  0  0  0  0  0  0  0
   -1.8378   -4.3887   30.6348 H   0  0  0  0  0  0  0  0  0  0  0  0
  1  2  1  0
  2  3  1  0
  3  4  1  0
  4  5  1  0
  5  6  1  0
  6  7  2  0
  6  8  1  0
  8  9  1  0
  9 10  2  0
 10 11  1  0
 11 12  2  0
 12 13  1  0
  2 14  1  0
 14 15  1  0
 15 16  2  0
 15 17  1  0
 17 18  1  0
 18 19  1  0
 19 20  2  0
 20 21  1  0
 21 22  1  0
 13  9  1  0
 21 17  2  0
  1 23  1  0
  1 24  1  0
  1 25  1  0
  2 26  1  0
  3 27  1  0
  3 28  1  0
  4 29  1  0
  4 30  1  0
  5 31  1  0
  8 32  1  0
  8 33  1  0
 10 34  1  0
 11 35  1  0
 14 36  1  0
 18 37  1  0
 20 38  1  0
M  END
>  <Energy>  (425) 
102.85079561555361

>  <compound_id>  (425) 
17322

>  <target_id>  (425) 
1

>  <reference_id>  (425) 
96

>  <inspiration_ids>  (425) 
[96, 59]

>  <energy_score>  (425) 
118.45271196931321

>  <distance_score>  (425) 
9.630396234537685

>  <path>  (425) 
/opt/xchem-fragalysis-2/maxwin/BulkDock/SCRATCH/511014/C17322-P96/C17322-P96.minimised.mol

>  <scratch_subdir>  (425) 
/opt/xchem-fragalysis-2/maxwin/BulkDock/SCRATCH/511014/C17322-P96

>  <fragmenstein_runtime>  (425) 
16.482659101486206

>  <fragmenstein_outcome>  (425) 
too moved

>  <fragmenstein_mode>  (425) 
expansion

>  <fragmenstein_error>  (425) 


$$$$
C17322-P59
     RDKit          3D

 38 39  0  0  0  0  0  0  0  0999 V2000
   -7.7958   -5.9198   35.5150 C   0  0  0  0  0  0  0  0  0  0  0  0
   -6.7417   -5.4637   34.6692 C   0  0  0  0  0  0  0  0  0  0  0  0
   -7.8342   -6.5553   33.4336 C   0  0  0  0  0  0  0  0  0  0  0  0
   -9.5968   -7.2979   33.3430 C   0  0  0  0  0  0  0  0  0  0  0  0
  -11.1767   -7.2746   33.3653 N   0  0  0  0  0  0  0  0  0  0  0  0
  -12.1589   -8.3080   33.7961 C   0  0  0  0  0  0  0  0  0  0  0  0
  -11.9915   -9.4440   34.1582 O   0  0  0  0  0  0  0  0  0  0  0  0
  -13.6623   -7.8807   33.9123 C   0  0  0  0  0  0  0  0  0  0  0  0
  -14.5514   -9.1416   33.8142 C   0  0  0  0  0  0  0  0  0  0  0  0
  -14.5464  -10.3822   34.4263 C   0  0  0  0  0  0  0  0  0  0  0  0
  -15.5892  -11.1049   33.8357 C   0  0  0  0  0  0  0  0  0  0  0  0
  -16.2502  -10.3638   32.9486 N   0  0  0  0  0  0  0  0  0  0  0  0
  -15.5833   -9.1373   32.9149 O   0  0  0  0  0  0  0  0  0  0  0  0
   -5.5793   -3.8346   34.8857 N   0  0  0  0  0  0  0  0  0  0  0  0
   -4.9401   -2.8542   33.7861 C   0  0  0  0  0  0  0  0  0  0  0  0
   -5.0835   -2.8304   32.5782 O   0  0  0  0  0  0  0  0  0  0  0  0
   -4.0971   -1.7829   34.2881 C   0  0  0  0  0  0  0  0  0  0  0  0
   -3.3179   -1.1047   33.3704 N   0  0  0  0  0  0  0  0  0  0  0  0
   -2.6177   -0.0748   33.8676 N   0  0  0  0  0  0  0  0  0  0  0  0
   -2.9132   -0.1266   35.1676 C   0  0  0  0  0  0  0  0  0  0  0  0
   -3.8349   -1.1537   35.4794 C   0  0  0  0  0  0  0  0  0  0  0  0
   -4.4745   -1.4134   37.0221 Cl  0  0  0  0  0  0  0  0  0  0  0  0
   -7.6131   -6.8438   36.0141 H   0  0  0  0  0  0  0  0  0  0  0  0
   -8.8758   -5.8418   35.4677 H   0  0  0  0  0  0  0  0  0  0  0  0
   -7.6799   -4.9422   35.8728 H   0  0  0  0  0  0  0  0  0  0  0  0
   -6.2430   -5.5144   33.7943 H   0  0  0  0  0  0  0  0  0  0  0  0
   -7.2767   -7.4158   33.4992 H   0  0  0  0  0  0  0  0  0  0  0  0
   -7.4459   -6.5415   32.4281 H   0  0  0  0  0  0  0  0  0  0  0  0
   -9.5080   -8.3198   33.6049 H   0  0  0  0  0  0  0  0  0  0  0  0
   -9.8119   -6.6167   34.1149 H   0  0  0  0  0  0  0  0  0  0  0  0
  -11.6757   -6.4548   33.0486 H   0  0  0  0  0  0  0  0  0  0  0  0
  -13.9483   -7.1323   33.1705 H   0  0  0  0  0  0  0  0  0  0  0  0
  -13.7983   -7.4387   34.9058 H   0  0  0  0  0  0  0  0  0  0  0  0
  -13.8474  -10.7078   35.1694 H   0  0  0  0  0  0  0  0  0  0  0  0
  -15.9154  -12.1170   34.0199 H   0  0  0  0  0  0  0  0  0  0  0  0
   -5.1930   -3.6330   35.7561 H   0  0  0  0  0  0  0  0  0  0  0  0
   -3.2693   -1.3037   32.3750 H   0  0  0  0  0  0  0  0  0  0  0  0
   -2.4665    0.5974   35.8375 H   0  0  0  0  0  0  0  0  0  0  0  0
  1  2  1  0
  2  3  1  0
  3  4  1  0
  4  5  1  0
  5  6  1  0
  6  7  2  0
  6  8  1  0
  8  9  1  0
  9 10  2  0
 10 11  1  0
 11 12  2  0
 12 13  1  0
  2 14  1  0
 14 15  1  0
 15 16  2  0
 15 17  1  0
 17 18  1  0
 18 19  1  0
 19 20  2  0
 20 21  1  0
 21 22  1  0
 13  9  1  0
 21 17  2  0
  1 23  1  0
  1 24  1  0
  1 25  1  0
  2 26  1  0
  3 27  1  0
  3 28  1  0
  4 29  1  0
  4 30  1  0
  5 31  1  0
  8 32  1  0
  8 33  1  0
 10 34  1  0
 11 35  1  0
 14 36  1  0
 18 37  1  0
 20 38  1  0
M  END
>  <Energy>  (426) 
403.77598821043983

>  <compound_id>  (426) 
17322

>  <target_id>  (426) 
1

>  <reference_id>  (426) 
59

>  <inspiration_ids>  (426) 
[96, 59]

>  <energy_score>  (426) 
419.3779045641933

>  <distance_score>  (426) 
10.175731851254818

>  <path>  (426) 
/opt/xchem-fragalysis-2/maxwin/BulkDock/SCRATCH/511014/C17322-P59/C17322-P59.minimised.mol

>  <scratch_subdir>  (426) 
/opt/xchem-fragalysis-2/maxwin/BulkDock/SCRATCH/511014/C17322-P59

>  <fragmenstein_runtime>  (426) 
18.768220901489258

>  <fragmenstein_outcome>  (426) 
too moved

>  <fragmenstein_mode>  (426) 
expansion

>  <fragmenstein_error>  (426) 


$$$$
C17323-P96
     RDKit          3D

 38 39  0  0  0  0  0  0  0  0999 V2000
   -3.3478   -7.8664   29.4336 C   0  0  0  0  0  0  0  0  0  0  0  0
   -2.8575   -9.0415   28.2104 C   0  0  0  0  0  0  0  0  0  0  0  0
   -4.0066  -10.4216   27.6776 C   0  0  0  0  0  0  0  0  0  0  0  0
   -5.3017  -10.8733   28.5929 N   0  0  0  0  0  0  0  0  0  0  0  0
   -6.0391  -12.3114   28.7475 C   0  0  0  0  0  0  0  0  0  0  0  0
   -5.8396  -13.3496   28.1483 O   0  0  0  0  0  0  0  0  0  0  0  0
   -7.3252  -12.3842   30.1957 C   0  0  0  0  0  0  0  0  0  0  0  0
   -7.4840  -13.4776   31.8088 C   0  0  0  0  0  0  0  0  0  0  0  0
   -6.5289  -14.2104   32.5483 C   0  0  0  0  0  0  0  0  0  0  0  0
   -7.2622  -14.9554   33.4830 C   0  0  0  0  0  0  0  0  0  0  0  0
   -8.5706  -14.7456   33.3701 N   0  0  0  0  0  0  0  0  0  0  0  0
   -8.7188  -13.9305   32.2265 O   0  0  0  0  0  0  0  0  0  0  0  0
   -1.7086   -8.3729   27.2473 C   0  0  0  0  0  0  0  0  0  0  0  0
   -1.5868   -6.8653   27.0279 N   0  0  0  0  0  0  0  0  0  0  0  0
   -1.6250   -5.7499   27.9738 C   0  0  0  0  0  0  0  0  0  0  0  0
   -1.8410   -5.7331   29.1516 O   0  0  0  0  0  0  0  0  0  0  0  0
   -1.4729   -4.4295   27.3858 C   0  0  0  0  0  0  0  0  0  0  0  0
   -1.1053   -3.3694   28.1897 N   0  0  0  0  0  0  0  0  0  0  0  0
   -1.0863   -2.1767   27.5662 N   0  0  0  0  0  0  0  0  0  0  0  0
   -1.3763   -2.4953   26.3023 C   0  0  0  0  0  0  0  0  0  0  0  0
   -1.6032   -3.8794   26.1313 C   0  0  0  0  0  0  0  0  0  0  0  0
   -1.9856   -4.6275   24.6588 Cl  0  0  0  0  0  0  0  0  0  0  0  0
   -3.6161   -6.8344   29.2294 H   0  0  0  0  0  0  0  0  0  0  0  0
   -2.6511   -7.7091   30.2598 H   0  0  0  0  0  0  0  0  0  0  0  0
   -4.3088   -8.1544   29.8162 H   0  0  0  0  0  0  0  0  0  0  0  0
   -2.1495   -9.7754   28.6074 H   0  0  0  0  0  0  0  0  0  0  0  0
   -3.3675  -11.3141   27.6546 H   0  0  0  0  0  0  0  0  0  0  0  0
   -4.2904  -10.3831   26.6303 H   0  0  0  0  0  0  0  0  0  0  0  0
   -5.6477  -10.2410   29.2980 H   0  0  0  0  0  0  0  0  0  0  0  0
   -8.3351  -12.6061   29.9126 H   0  0  0  0  0  0  0  0  0  0  0  0
   -7.2920  -11.3370   30.5103 H   0  0  0  0  0  0  0  0  0  0  0  0
   -5.4598  -14.2267   32.4074 H   0  0  0  0  0  0  0  0  0  0  0  0
   -6.9052  -15.6435   34.2345 H   0  0  0  0  0  0  0  0  0  0  0  0
   -0.7105   -8.6842   27.5707 H   0  0  0  0  0  0  0  0  0  0  0  0
   -1.8046   -8.8212   26.2508 H   0  0  0  0  0  0  0  0  0  0  0  0
   -1.2884   -6.5205   26.1195 H   0  0  0  0  0  0  0  0  0  0  0  0
   -0.8620   -3.4252   29.1762 H   0  0  0  0  0  0  0  0  0  0  0  0
   -1.4197   -1.7122   25.5556 H   0  0  0  0  0  0  0  0  0  0  0  0
  1  2  1  0
  2  3  1  0
  3  4  1  0
  4  5  1  0
  5  6  2  0
  5  7  1  0
  7  8  1  0
  8  9  2  0
  9 10  1  0
 10 11  2  0
 11 12  1  0
  2 13  1  0
 13 14  1  0
 14 15  1  0
 15 16  2  0
 15 17  1  0
 17 18  1  0
 18 19  1  0
 19 20  2  0
 20 21  1  0
 21 22  1  0
 12  8  1  0
 21 17  2  0
  1 23  1  0
  1 24  1  0
  1 25  1  0
  2 26  1  0
  3 27  1  0
  3 28  1  0
  4 29  1  0
  7 30  1  0
  7 31  1  0
  9 32  1  0
 10 33  1  0
 13 34  1  0
 13 35  1  0
 14 36  1  0
 18 37  1  0
 20 38  1  0
M  END
>  <Energy>  (427) 
198.12841077813235

>  <compound_id>  (427) 
17323

>  <target_id>  (427) 
1

>  <reference_id>  (427) 
96

>  <inspiration_ids>  (427) 
[96, 59]

>  <energy_score>  (427) 
183.23124537023807

>  <distance_score>  (427) 
8.92951875432658

>  <path>  (427) 
/opt/xchem-fragalysis-2/maxwin/BulkDock/SCRATCH/511014/C17323-P96/C17323-P96.minimised.mol

>  <scratch_subdir>  (427) 
/opt/xchem-fragalysis-2/maxwin/BulkDock/SCRATCH/511014/C17323-P96

>  <fragmenstein_runtime>  (427) 
9.963947296142578

>  <fragmenstein_outcome>  (427) 
too moved

>  <fragmenstein_mode>  (427) 
expansion

>  <fragmenstein_error>  (427) 


$$$$
C17323-P59
     RDKit          3D

 38 39  0  0  0  0  0  0  0  0999 V2000
  -10.3464   -6.1767   35.7147 C   0  0  0  0  0  0  0  0  0  0  0  0
   -9.0349   -6.6065   35.0111 C   0  0  0  0  0  0  0  0  0  0  0  0
   -9.3085   -7.8808   33.5126 C   0  0  0  0  0  0  0  0  0  0  0  0
   -9.8669   -9.7467   33.2401 N   0  0  0  0  0  0  0  0  0  0  0  0
   -8.8315  -11.4148   32.8012 C   0  0  0  0  0  0  0  0  0  0  0  0
   -7.6324  -11.5045   32.5336 O   0  0  0  0  0  0  0  0  0  0  0  0
   -9.6442  -13.3253   32.9294 C   0  0  0  0  0  0  0  0  0  0  0  0
  -10.3606  -14.9073   33.6718 C   0  0  0  0  0  0  0  0  0  0  0  0
  -11.4643  -15.5382   34.3713 C   0  0  0  0  0  0  0  0  0  0  0  0
  -11.0076  -16.8157   34.8494 C   0  0  0  0  0  0  0  0  0  0  0  0
   -9.8256  -17.0862   34.3229 N   0  0  0  0  0  0  0  0  0  0  0  0
   -9.6455  -16.0513   33.3889 O   0  0  0  0  0  0  0  0  0  0  0  0
   -7.4910   -5.4485   35.2164 C   0  0  0  0  0  0  0  0  0  0  0  0
   -7.3402   -3.4902   35.4885 N   0  0  0  0  0  0  0  0  0  0  0  0
   -6.1755   -2.5048   35.1719 C   0  0  0  0  0  0  0  0  0  0  0  0
   -5.0641   -2.7201   34.7603 O   0  0  0  0  0  0  0  0  0  0  0  0
   -6.4485   -1.1027   35.3211 C   0  0  0  0  0  0  0  0  0  0  0  0
   -5.4401   -0.2265   34.9694 N   0  0  0  0  0  0  0  0  0  0  0  0
   -5.7496    1.0676   35.0863 N   0  0  0  0  0  0  0  0  0  0  0  0
   -7.0170    1.0204   35.5134 C   0  0  0  0  0  0  0  0  0  0  0  0
   -7.4849   -0.3006   35.7099 C   0  0  0  0  0  0  0  0  0  0  0  0
   -8.9988   -0.7463   36.3208 Cl  0  0  0  0  0  0  0  0  0  0  0  0
  -10.4139   -5.1035   35.9072 H   0  0  0  0  0  0  0  0  0  0  0  0
  -11.2238   -6.4905   35.1564 H   0  0  0  0  0  0  0  0  0  0  0  0
  -10.4576   -6.6867   36.6799 H   0  0  0  0  0  0  0  0  0  0  0  0
   -8.6439   -7.1668   35.8494 H   0  0  0  0  0  0  0  0  0  0  0  0
  -10.2071   -7.4344   33.1159 H   0  0  0  0  0  0  0  0  0  0  0  0
   -8.5003   -7.4614   32.9208 H   0  0  0  0  0  0  0  0  0  0  0  0
  -10.8036   -9.9701   33.4976 H   0  0  0  0  0  0  0  0  0  0  0  0
   -8.6255  -13.6704   33.1295 H   0  0  0  0  0  0  0  0  0  0  0  0
   -9.6831  -13.9962   32.0726 H   0  0  0  0  0  0  0  0  0  0  0  0
  -12.4494  -15.2338   34.6858 H   0  0  0  0  0  0  0  0  0  0  0  0
  -11.4933  -17.5184   35.5071 H   0  0  0  0  0  0  0  0  0  0  0  0
   -7.0145   -6.0722   35.8811 H   0  0  0  0  0  0  0  0  0  0  0  0
   -6.8657   -5.7468   34.3777 H   0  0  0  0  0  0  0  0  0  0  0  0
   -8.1220   -2.9691   35.9045 H   0  0  0  0  0  0  0  0  0  0  0  0
   -4.5150   -0.4956   34.6450 H   0  0  0  0  0  0  0  0  0  0  0  0
   -7.5489    1.9494   35.6747 H   0  0  0  0  0  0  0  0  0  0  0  0
  1  2  1  0
  2  3  1  0
  3  4  1  0
  4  5  1  0
  5  6  2  0
  5  7  1  0
  7  8  1  0
  8  9  2  0
  9 10  1  0
 10 11  2  0
 11 12  1  0
  2 13  1  0
 13 14  1  0
 14 15  1  0
 15 16  2  0
 15 17  1  0
 17 18  1  0
 18 19  1  0
 19 20  2  0
 20 21  1  0
 21 22  1  0
 12  8  1  0
 21 17  2  0
  1 23  1  0
  1 24  1  0
  1 25  1  0
  2 26  1  0
  3 27  1  0
  3 28  1  0
  4 29  1  0
  7 30  1  0
  7 31  1  0
  9 32  1  0
 10 33  1  0
 13 34  1  0
 13 35  1  0
 14 36  1  0
 18 37  1  0
 20 38  1  0
M  END
>  <Energy>  (428) 
628.41518216836539

>  <compound_id>  (428) 
17323

>  <target_id>  (428) 
1

>  <reference_id>  (428) 
59

>  <inspiration_ids>  (428) 
[96, 59]

>  <energy_score>  (428) 
613.5180167604576

>  <distance_score>  (428) 
8.338017918250033

>  <path>  (428) 
/opt/xchem-fragalysis-2/maxwin/BulkDock/SCRATCH/511014/C17323-P59/C17323-P59.minimised.mol

>  <scratch_subdir>  (428) 
/opt/xchem-fragalysis-2/maxwin/BulkDock/SCRATCH/511014/C17323-P59

>  <fragmenstein_runtime>  (428) 
20.705892324447632

>  <fragmenstein_outcome>  (428) 
too moved

>  <fragmenstein_mode>  (428) 
expansion

>  <fragmenstein_error>  (428) 


$$$$
C17324-P96
     RDKit          3D

 41 42  0  0  0  0  0  0  0  0999 V2000
   -7.4643   -5.2835   29.5637 C   0  0  0  0  0  0  0  0  0  0  0  0
   -6.6270   -7.0076   28.9183 C   0  0  0  0  0  0  0  0  0  0  0  0
   -4.9279   -6.6393   29.7787 C   0  0  0  0  0  0  0  0  0  0  0  0
   -3.4033   -6.9886   29.8560 C   0  0  0  0  0  0  0  0  0  0  0  0
   -2.5916   -5.7510   29.7839 N   0  0  0  0  0  0  0  0  0  0  0  0
   -2.1772   -4.9585   28.6578 C   0  0  0  0  0  0  0  0  0  0  0  0
   -2.3158   -5.1413   27.4887 O   0  0  0  0  0  0  0  0  0  0  0  0
   -1.5729   -3.6797   29.0745 C   0  0  0  0  0  0  0  0  0  0  0  0
   -1.0397   -3.3705   30.3036 N   0  0  0  0  0  0  0  0  0  0  0  0
   -0.7470   -2.0734   30.4949 N   0  0  0  0  0  0  0  0  0  0  0  0
   -0.8458   -1.5732   29.2631 C   0  0  0  0  0  0  0  0  0  0  0  0
   -1.3106   -2.5299   28.3390 C   0  0  0  0  0  0  0  0  0  0  0  0
   -1.4899   -2.2103   26.6829 Cl  0  0  0  0  0  0  0  0  0  0  0  0
   -7.0277   -8.3971   27.6256 N   0  0  0  0  0  0  0  0  0  0  0  0
   -8.2133   -8.3309   28.2189 C   0  0  0  0  0  0  0  0  0  0  0  0
   -6.3093  -10.1520   27.5593 C   0  0  0  0  0  0  0  0  0  0  0  0
   -5.5759  -10.7309   28.3448 O   0  0  0  0  0  0  0  0  0  0  0  0
   -6.8564  -11.1493   25.9385 C   0  0  0  0  0  0  0  0  0  0  0  0
   -7.8804  -12.2895   25.7286 C   0  0  0  0  0  0  0  0  0  0  0  0
   -8.6332  -12.5482   24.5805 C   0  0  0  0  0  0  0  0  0  0  0  0
   -9.3656  -13.7000   24.8486 C   0  0  0  0  0  0  0  0  0  0  0  0
   -9.0942  -14.1545   26.0614 N   0  0  0  0  0  0  0  0  0  0  0  0
   -8.2481  -13.1994   26.6665 O   0  0  0  0  0  0  0  0  0  0  0  0
   -7.6423   -4.5024   28.8392 H   0  0  0  0  0  0  0  0  0  0  0  0
   -8.2939   -5.2001   30.3012 H   0  0  0  0  0  0  0  0  0  0  0  0
   -6.6062   -5.3250   30.1648 H   0  0  0  0  0  0  0  0  0  0  0  0
   -6.4198   -7.8120   29.7234 H   0  0  0  0  0  0  0  0  0  0  0  0
   -4.7447   -5.6477   29.4564 H   0  0  0  0  0  0  0  0  0  0  0  0
   -5.2236   -6.6476   30.8399 H   0  0  0  0  0  0  0  0  0  0  0  0
   -3.1331   -7.3086   30.8589 H   0  0  0  0  0  0  0  0  0  0  0  0
   -3.0128   -7.7273   29.1631 H   0  0  0  0  0  0  0  0  0  0  0  0
   -2.3808   -5.2524   30.6313 H   0  0  0  0  0  0  0  0  0  0  0  0
   -0.7856   -4.0175   31.0394 H   0  0  0  0  0  0  0  0  0  0  0  0
   -0.5748   -0.5405   29.0860 H   0  0  0  0  0  0  0  0  0  0  0  0
   -9.2810   -8.4238   27.8343 H   0  0  0  0  0  0  0  0  0  0  0  0
   -8.6839   -8.8193   29.0431 H   0  0  0  0  0  0  0  0  0  0  0  0
   -8.4487   -7.8463   27.2574 H   0  0  0  0  0  0  0  0  0  0  0  0
   -7.1685  -10.6628   24.9657 H   0  0  0  0  0  0  0  0  0  0  0  0
   -5.8457  -10.8285   25.6164 H   0  0  0  0  0  0  0  0  0  0  0  0
   -8.6144  -11.9679   23.6705 H   0  0  0  0  0  0  0  0  0  0  0  0
  -10.0542  -14.2417   24.2183 H   0  0  0  0  0  0  0  0  0  0  0  0
  1  2  1  0
  2  3  1  0
  3  4  1  0
  4  5  1  0
  5  6  1  0
  6  7  2  0
  6  8  1  0
  8  9  1  0
  9 10  1  0
 10 11  2  0
 11 12  1  0
 12 13  1  0
  2 14  1  0
 14 15  1  0
 14 16  1  0
 16 17  2  0
 16 18  1  0
 18 19  1  0
 19 20  2  0
 20 21  1  0
 21 22  2  0
 22 23  1  0
 12  8  2  0
 23 19  1  0
  1 24  1  0
  1 25  1  0
  1 26  1  0
  2 27  1  0
  3 28  1  0
  3 29  1  0
  4 30  1  0
  4 31  1  0
  5 32  1  0
  9 33  1  0
 11 34  1  0
 15 35  1  0
 15 36  1  0
 15 37  1  0
 18 38  1  0
 18 39  1  0
 20 40  1  0
 21 41  1  0
M  END
>  <Energy>  (429) 
555.59303605924947

>  <compound_id>  (429) 
17324

>  <target_id>  (429) 
1

>  <reference_id>  (429) 
96

>  <inspiration_ids>  (429) 
[96, 59]

>  <energy_score>  (429) 
561.3710610366463

>  <distance_score>  (429) 
8.177156558108674

>  <path>  (429) 
/opt/xchem-fragalysis-2/maxwin/BulkDock/SCRATCH/511014/C17324-P96/C17324-P96.minimised.mol

>  <scratch_subdir>  (429) 
/opt/xchem-fragalysis-2/maxwin/BulkDock/SCRATCH/511014/C17324-P96

>  <fragmenstein_runtime>  (429) 
13.40052080154419

>  <fragmenstein_outcome>  (429) 
too moved

>  <fragmenstein_mode>  (429) 
expansion

>  <fragmenstein_error>  (429) 


$$$$
C17324-P59
     RDKit          3D

 41 42  0  0  0  0  0  0  0  0999 V2000
  -10.3601   -9.5558   33.3501 C   0  0  0  0  0  0  0  0  0  0  0  0
   -9.0588  -10.2593   32.1910 C   0  0  0  0  0  0  0  0  0  0  0  0
   -8.8362   -8.1366   33.0468 C   0  0  0  0  0  0  0  0  0  0  0  0
   -7.2689   -6.8729   33.2270 C   0  0  0  0  0  0  0  0  0  0  0  0
   -6.2737   -5.3935   34.0364 N   0  0  0  0  0  0  0  0  0  0  0  0
   -5.1636   -4.0039   33.2208 C   0  0  0  0  0  0  0  0  0  0  0  0
   -4.8126   -3.8525   32.0567 O   0  0  0  0  0  0  0  0  0  0  0  0
   -4.6867   -2.7477   34.0972 C   0  0  0  0  0  0  0  0  0  0  0  0
   -5.4025   -1.9993   34.9893 N   0  0  0  0  0  0  0  0  0  0  0  0
   -4.7623   -0.9118   35.4550 N   0  0  0  0  0  0  0  0  0  0  0  0
   -3.6455   -0.8746   34.7272 C   0  0  0  0  0  0  0  0  0  0  0  0
   -3.5704   -1.9471   33.8296 C   0  0  0  0  0  0  0  0  0  0  0  0
   -2.3236   -2.1457   32.6908 Cl  0  0  0  0  0  0  0  0  0  0  0  0
   -7.4392  -11.5686   31.9081 N   0  0  0  0  0  0  0  0  0  0  0  0
   -7.2934  -10.4120   30.3081 C   0  0  0  0  0  0  0  0  0  0  0  0
   -7.3610  -13.4795   31.5197 C   0  0  0  0  0  0  0  0  0  0  0  0
   -8.2855  -14.2697   31.2802 O   0  0  0  0  0  0  0  0  0  0  0  0
   -5.9937  -14.2262   31.3183 C   0  0  0  0  0  0  0  0  0  0  0  0
   -5.4240  -15.7320   30.7193 C   0  0  0  0  0  0  0  0  0  0  0  0
   -5.4786  -16.5337   29.5750 C   0  0  0  0  0  0  0  0  0  0  0  0
   -4.4960  -17.5178   29.7026 C   0  0  0  0  0  0  0  0  0  0  0  0
   -3.8309  -17.3726   30.8356 N   0  0  0  0  0  0  0  0  0  0  0  0
   -4.3496  -16.2341   31.4117 O   0  0  0  0  0  0  0  0  0  0  0  0
  -11.3801   -9.9120   33.6250 H   0  0  0  0  0  0  0  0  0  0  0  0
  -10.5618   -8.6102   32.9692 H   0  0  0  0  0  0  0  0  0  0  0  0
   -9.9741   -9.7648   34.3147 H   0  0  0  0  0  0  0  0  0  0  0  0
   -9.6289  -10.4598   31.2760 H   0  0  0  0  0  0  0  0  0  0  0  0
   -9.1681   -7.8511   34.0005 H   0  0  0  0  0  0  0  0  0  0  0  0
   -9.5254   -7.3470   32.6083 H   0  0  0  0  0  0  0  0  0  0  0  0
   -7.9906   -6.4519   33.9093 H   0  0  0  0  0  0  0  0  0  0  0  0
   -7.1367   -6.6385   32.1980 H   0  0  0  0  0  0  0  0  0  0  0  0
   -6.4531   -5.1978   35.0163 H   0  0  0  0  0  0  0  0  0  0  0  0
   -6.3653   -2.1228   35.2769 H   0  0  0  0  0  0  0  0  0  0  0  0
   -2.9471   -0.0607   34.8707 H   0  0  0  0  0  0  0  0  0  0  0  0
   -6.5024  -10.7859   29.6639 H   0  0  0  0  0  0  0  0  0  0  0  0
   -6.6878   -9.5426   30.3827 H   0  0  0  0  0  0  0  0  0  0  0  0
   -8.2388   -9.9895   29.9497 H   0  0  0  0  0  0  0  0  0  0  0  0
   -5.5351  -14.4655   32.2180 H   0  0  0  0  0  0  0  0  0  0  0  0
   -5.7156  -13.7526   30.3801 H   0  0  0  0  0  0  0  0  0  0  0  0
   -6.1001  -16.4007   28.7053 H   0  0  0  0  0  0  0  0  0  0  0  0
   -4.2096  -18.2902   29.0069 H   0  0  0  0  0  0  0  0  0  0  0  0
  1  2  1  0
  2  3  1  0
  3  4  1  0
  4  5  1  0
  5  6  1  0
  6  7  2  0
  6  8  1  0
  8  9  1  0
  9 10  1  0
 10 11  2  0
 11 12  1  0
 12 13  1  0
  2 14  1  0
 14 15  1  0
 14 16  1  0
 16 17  2  0
 16 18  1  0
 18 19  1  0
 19 20  2  0
 20 21  1  0
 21 22  2  0
 22 23  1  0
 12  8  2  0
 23 19  1  0
  1 24  1  0
  1 25  1  0
  1 26  1  0
  2 27  1  0
  3 28  1  0
  3 29  1  0
  4 30  1  0
  4 31  1  0
  5 32  1  0
  9 33  1  0
 11 34  1  0
 15 35  1  0
 15 36  1  0
 15 37  1  0
 18 38  1  0
 18 39  1  0
 20 40  1  0
 21 41  1  0
M  END
>  <Energy>  (430) 
1065.9890491819299

>  <compound_id>  (430) 
17324

>  <target_id>  (430) 
1

>  <reference_id>  (430) 
59

>  <inspiration_ids>  (430) 
[96, 59]

>  <energy_score>  (430) 
1071.7670741593085

>  <distance_score>  (430) 
8.009791035676699

>  <path>  (430) 
/opt/xchem-fragalysis-2/maxwin/BulkDock/SCRATCH/511014/C17324-P59/C17324-P59.minimised.mol

>  <scratch_subdir>  (430) 
/opt/xchem-fragalysis-2/maxwin/BulkDock/SCRATCH/511014/C17324-P59

>  <fragmenstein_runtime>  (430) 
22.22450280189514

>  <fragmenstein_outcome>  (430) 
too moved

>  <fragmenstein_mode>  (430) 
expansion

>  <fragmenstein_error>  (430) 


$$$$
C17325-P96
     RDKit          3D

 32 34  0  0  0  0  0  0  0  0999 V2000
   -5.6878  -13.9102   28.9246 C   0  0  0  0  0  0  0  0  0  0  0  0
   -6.4461  -12.3440   28.5580 C   0  0  0  0  0  0  0  0  0  0  0  0
   -7.6371  -12.5946   27.1276 C   0  0  0  0  0  0  0  0  0  0  0  0
   -8.8363  -13.4921   26.5518 C   0  0  0  0  0  0  0  0  0  0  0  0
   -9.0413  -14.6099   25.7931 C   0  0  0  0  0  0  0  0  0  0  0  0
  -10.3837  -15.0702   25.9525 C   0  0  0  0  0  0  0  0  0  0  0  0
  -11.1808  -14.0770   26.4086 N   0  0  0  0  0  0  0  0  0  0  0  0
  -10.1842  -12.9675   26.5724 O   0  0  0  0  0  0  0  0  0  0  0  0
   -5.3592  -10.9894   28.4059 N   0  0  0  0  0  0  0  0  0  0  0  0
   -5.1383   -9.7738   29.0292 C   0  0  0  0  0  0  0  0  0  0  0  0
   -5.9635   -9.0061   29.9203 C   0  0  0  0  0  0  0  0  0  0  0  0
   -5.4773   -7.7588   30.3643 N   0  0  0  0  0  0  0  0  0  0  0  0
   -4.1537   -7.6703   29.8412 N   0  0  0  0  0  0  0  0  0  0  0  0
   -3.3693   -6.5212   30.0271 C   0  0  0  0  0  0  0  0  0  0  0  0
   -2.7233   -5.9440   29.0367 N   0  0  0  0  0  0  0  0  0  0  0  0
   -1.9996   -4.8774   29.5416 C   0  0  0  0  0  0  0  0  0  0  0  0
   -2.0925   -4.6873   30.9052 C   0  0  0  0  0  0  0  0  0  0  0  0
   -3.0986   -5.8995   31.5912 S   0  0  0  0  0  0  0  0  0  0  0  0
   -3.9173   -8.8853   28.9788 C   0  0  0  0  0  0  0  0  0  0  0  0
   -5.7970  -14.2783   29.9326 H   0  0  0  0  0  0  0  0  0  0  0  0
   -4.5969  -14.0643   28.7974 H   0  0  0  0  0  0  0  0  0  0  0  0
   -6.0523  -14.6271   28.2302 H   0  0  0  0  0  0  0  0  0  0  0  0
   -6.9876  -12.0933   29.4694 H   0  0  0  0  0  0  0  0  0  0  0  0
   -8.4309  -12.3503   27.7913 H   0  0  0  0  0  0  0  0  0  0  0  0
   -7.4226  -11.8945   26.3303 H   0  0  0  0  0  0  0  0  0  0  0  0
   -8.3723  -14.8946   25.0250 H   0  0  0  0  0  0  0  0  0  0  0  0
  -10.8571  -15.9322   25.5346 H   0  0  0  0  0  0  0  0  0  0  0  0
   -4.4410  -11.3495   28.2126 H   0  0  0  0  0  0  0  0  0  0  0  0
   -6.8174   -9.5147   30.3181 H   0  0  0  0  0  0  0  0  0  0  0  0
   -1.3794   -4.2887   28.8740 H   0  0  0  0  0  0  0  0  0  0  0  0
   -1.5831   -3.9527   31.5117 H   0  0  0  0  0  0  0  0  0  0  0  0
   -2.9845   -8.9199   28.4331 H   0  0  0  0  0  0  0  0  0  0  0  0
  1  2  1  0
  2  3  1  0
  3  4  1  0
  4  5  2  0
  5  6  1  0
  6  7  2  0
  7  8  1  0
  2  9  1  0
  9 10  1  0
 10 11  1  0
 11 12  2  0
 12 13  1  0
 13 14  1  0
 14 15  2  0
 15 16  1  0
 16 17  2  0
 17 18  1  0
 13 19  1  0
  8  4  1  0
 19 10  2  0
 18 14  1  0
  1 20  1  0
  1 21  1  0
  1 22  1  0
  2 23  1  0
  3 24  1  0
  3 25  1  0
  5 26  1  0
  6 27  1  0
  9 28  1  0
 11 29  1  0
 16 30  1  0
 17 31  1  0
 19 32  1  0
M  END
>  <Energy>  (431) 
260.17305184508683

>  <compound_id>  (431) 
17325

>  <target_id>  (431) 
1

>  <reference_id>  (431) 
96

>  <inspiration_ids>  (431) 
[96, 59]

>  <energy_score>  (431) 
116.51349594414512

>  <distance_score>  (431) 
9.167760306650376

>  <path>  (431) 
/opt/xchem-fragalysis-2/maxwin/BulkDock/SCRATCH/511014/C17325-P96/C17325-P96.minimised.mol

>  <scratch_subdir>  (431) 
/opt/xchem-fragalysis-2/maxwin/BulkDock/SCRATCH/511014/C17325-P96

>  <fragmenstein_runtime>  (431) 
8.248595714569092

>  <fragmenstein_outcome>  (431) 
too moved

>  <fragmenstein_mode>  (431) 
expansion

>  <fragmenstein_error>  (431) 


$$$$
C17325-P59
     RDKit          3D

 32 34  0  0  0  0  0  0  0  0999 V2000
   -7.1644  -11.7491   32.6061 C   0  0  0  0  0  0  0  0  0  0  0  0
   -8.8802  -11.1937   32.6016 C   0  0  0  0  0  0  0  0  0  0  0  0
   -9.1042  -13.2553   32.9744 C   0  0  0  0  0  0  0  0  0  0  0  0
   -8.2098  -14.8643   32.1778 C   0  0  0  0  0  0  0  0  0  0  0  0
   -7.8058  -16.6220   32.6197 C   0  0  0  0  0  0  0  0  0  0  0  0
   -6.1640  -16.8611   31.9662 C   0  0  0  0  0  0  0  0  0  0  0  0
   -5.7105  -15.6739   31.4008 N   0  0  0  0  0  0  0  0  0  0  0  0
   -6.7464  -14.5424   31.4391 O   0  0  0  0  0  0  0  0  0  0  0  0
   -9.7658   -9.4447   33.3961 N   0  0  0  0  0  0  0  0  0  0  0  0
   -9.3326   -7.6303   33.6144 C   0  0  0  0  0  0  0  0  0  0  0  0
   -8.1738   -7.1871   32.9967 C   0  0  0  0  0  0  0  0  0  0  0  0
   -7.1786   -6.4569   32.7415 N   0  0  0  0  0  0  0  0  0  0  0  0
   -6.7639   -5.8295   33.9492 N   0  0  0  0  0  0  0  0  0  0  0  0
   -5.4046   -4.4944   33.4470 C   0  0  0  0  0  0  0  0  0  0  0  0
   -4.9082   -3.8137   32.3348 N   0  0  0  0  0  0  0  0  0  0  0  0
   -4.2034   -2.6102   32.4212 C   0  0  0  0  0  0  0  0  0  0  0  0
   -4.2340   -1.9408   33.5984 C   0  0  0  0  0  0  0  0  0  0  0  0
   -5.1776   -2.7276   34.7735 S   0  0  0  0  0  0  0  0  0  0  0  0
   -8.3652   -6.4554   34.6128 C   0  0  0  0  0  0  0  0  0  0  0  0
   -6.9615  -11.8454   31.5866 H   0  0  0  0  0  0  0  0  0  0  0  0
   -6.3395  -11.1783   33.0691 H   0  0  0  0  0  0  0  0  0  0  0  0
   -6.8710  -12.7308   32.8419 H   0  0  0  0  0  0  0  0  0  0  0  0
   -9.1125  -10.8585   31.6107 H   0  0  0  0  0  0  0  0  0  0  0  0
   -9.9896  -13.7477   33.3651 H   0  0  0  0  0  0  0  0  0  0  0  0
   -8.1941  -13.3092   33.4316 H   0  0  0  0  0  0  0  0  0  0  0  0
   -8.2845  -17.2856   33.3518 H   0  0  0  0  0  0  0  0  0  0  0  0
   -5.6126  -17.7922   31.9877 H   0  0  0  0  0  0  0  0  0  0  0  0
  -10.2995   -9.2968   32.5404 H   0  0  0  0  0  0  0  0  0  0  0  0
   -7.3832   -7.7617   33.3052 H   0  0  0  0  0  0  0  0  0  0  0  0
   -3.6934   -2.2534   31.5355 H   0  0  0  0  0  0  0  0  0  0  0  0
   -3.7747   -0.9915   33.8288 H   0  0  0  0  0  0  0  0  0  0  0  0
   -8.2905   -6.4163   35.6844 H   0  0  0  0  0  0  0  0  0  0  0  0
  1  2  1  0
  2  3  1  0
  3  4  1  0
  4  5  2  0
  5  6  1  0
  6  7  2  0
  7  8  1  0
  2  9  1  0
  9 10  1  0
 10 11  1  0
 11 12  2  0
 12 13  1  0
 13 14  1  0
 14 15  2  0
 15 16  1  0
 16 17  2  0
 17 18  1  0
 13 19  1  0
  8  4  1  0
 19 10  2  0
 18 14  1  0
  1 20  1  0
  1 21  1  0
  1 22  1  0
  2 23  1  0
  3 24  1  0
  3 25  1  0
  5 26  1  0
  6 27  1  0
  9 28  1  0
 11 29  1  0
 16 30  1  0
 17 31  1  0
 19 32  1  0
M  END
>  <Energy>  (432) 
1240.8751844060043

>  <compound_id>  (432) 
17325

>  <target_id>  (432) 
1

>  <reference_id>  (432) 
59

>  <inspiration_ids>  (432) 
[96, 59]

>  <energy_score>  (432) 
1097.2156285050457

>  <distance_score>  (432) 
8.106353904223232

>  <path>  (432) 
/opt/xchem-fragalysis-2/maxwin/BulkDock/SCRATCH/511014/C17325-P59/C17325-P59.minimised.mol

>  <scratch_subdir>  (432) 
/opt/xchem-fragalysis-2/maxwin/BulkDock/SCRATCH/511014/C17325-P59

>  <fragmenstein_runtime>  (432) 
12.035211324691772

>  <fragmenstein_outcome>  (432) 
too moved

>  <fragmenstein_mode>  (432) 
expansion

>  <fragmenstein_error>  (432) 


$$$$
C17350-P49
     RDKit          3D

 33 35  0  0  0  0  0  0  0  0999 V2000
   -2.2868  -12.2627   24.0922 O   0  0  0  0  0  0  0  0  0  0  0  0
   -2.5107  -13.2324   24.7469 C   0  0  0  0  0  0  0  0  0  0  0  0
   -2.2704  -13.7095   26.2911 C   0  0  0  0  0  0  0  0  0  0  0  0
   -2.7333  -15.1119   26.3936 C   0  0  0  0  0  0  0  0  0  0  0  0
   -3.1789  -16.4858   26.4098 C   0  0  0  0  0  0  0  0  0  0  0  0
   -2.2720  -17.2260   25.9748 O   0  0  0  0  0  0  0  0  0  0  0  0
   -4.9588  -17.0686   26.8319 N   0  0  0  0  0  0  0  0  0  0  0  0
   -5.7572  -18.6443   26.5819 C   0  0  0  0  0  0  0  0  0  0  0  0
   -7.3537  -19.3849   27.3765 C   0  0  0  0  0  0  0  0  0  0  0  0
   -8.8199  -18.3752   27.8749 C   0  0  0  0  0  0  0  0  0  0  0  0
   -9.9056  -19.7569   28.4831 C   0  0  0  0  0  0  0  0  0  0  0  0
   -9.9078  -21.1442   28.4865 N   0  0  0  0  0  0  0  0  0  0  0  0
   -8.7404  -21.7982   28.1455 C   0  0  0  0  0  0  0  0  0  0  0  0
   -8.9211  -23.3289   28.3134 C   0  0  0  0  0  0  0  0  0  0  0  0
  -10.0353  -24.0357   27.5616 C   0  0  0  0  0  0  0  0  0  0  0  0
  -10.1575  -23.8593   29.0383 C   0  0  0  0  0  0  0  0  0  0  0  0
   -7.4328  -20.9803   27.5979 C   0  0  0  0  0  0  0  0  0  0  0  0
   -2.8056  -15.3450   25.0071 N   0  0  0  0  0  0  0  0  0  0  0  0
   -2.9056  -14.3329   24.0940 N   0  0  0  0  0  0  0  0  0  0  0  0
   -2.6671  -13.1902   27.1353 H   0  0  0  0  0  0  0  0  0  0  0  0
   -1.2943  -13.6074   26.6597 H   0  0  0  0  0  0  0  0  0  0  0  0
   -5.4489  -16.3513   27.2233 H   0  0  0  0  0  0  0  0  0  0  0  0
   -6.3377  -18.1691   25.8043 H   0  0  0  0  0  0  0  0  0  0  0  0
   -5.0805  -19.3195   26.0306 H   0  0  0  0  0  0  0  0  0  0  0  0
   -8.7992  -17.2836   27.7622 H   0  0  0  0  0  0  0  0  0  0  0  0
  -10.7299  -19.4357   29.1656 H   0  0  0  0  0  0  0  0  0  0  0  0
   -8.0621  -23.8989   28.6350 H   0  0  0  0  0  0  0  0  0  0  0  0
  -10.6845  -23.4369   26.9303 H   0  0  0  0  0  0  0  0  0  0  0  0
   -9.8738  -25.0441   27.2043 H   0  0  0  0  0  0  0  0  0  0  0  0
  -10.0285  -24.7276   29.6752 H   0  0  0  0  0  0  0  0  0  0  0  0
  -10.9043  -23.1659   29.4094 H   0  0  0  0  0  0  0  0  0  0  0  0
   -6.5584  -21.5386   27.2810 H   0  0  0  0  0  0  0  0  0  0  0  0
   -2.9396  -14.3942   23.0893 H   0  0  0  0  0  0  0  0  0  0  0  0
  1  2  2  0
  2  3  1  0
  3  4  1  0
  4  5  1  0
  5  6  2  0
  5  7  1  0
  7  8  1  0
  8  9  1  0
  9 10  2  0
 10 11  1  0
 11 12  2  0
 12 13  1  0
 13 14  1  0
 14 15  1  0
 15 16  1  0
 13 17  2  0
  4 18  2  0
 18 19  1  0
 19  2  1  0
 17  9  1  0
 16 14  1  0
  3 20  1  0
  3 21  1  0
  7 22  1  0
  8 23  1  0
  8 24  1  0
 10 25  1  0
 11 26  1  0
 14 27  1  0
 15 28  1  0
 15 29  1  0
 16 30  1  0
 16 31  1  0
 17 32  1  0
 19 33  1  0
M  END
>  <Energy>  (433) 
570.03630790803413

>  <compound_id>  (433) 
17350

>  <target_id>  (433) 
1

>  <reference_id>  (433) 
49

>  <inspiration_ids>  (433) 
[49, 98]

>  <energy_score>  (433) 
493.94142602081735

>  <distance_score>  (433) 
15.591325453668768

>  <path>  (433) 
/opt/xchem-fragalysis-2/maxwin/BulkDock/SCRATCH/511014/C17350-P49/C17350-P49.minimised.mol

>  <scratch_subdir>  (433) 
/opt/xchem-fragalysis-2/maxwin/BulkDock/SCRATCH/511014/C17350-P49

>  <fragmenstein_runtime>  (433) 
18.526219129562378

>  <fragmenstein_outcome>  (433) 
too moved

>  <fragmenstein_mode>  (433) 
expansion

>  <fragmenstein_error>  (433) 


$$$$
C17350-P98
     RDKit          3D

 33 35  0  0  0  0  0  0  0  0999 V2000
    4.8922  -13.6003   18.6310 O   0  0  0  0  0  0  0  0  0  0  0  0
    4.1278  -14.5280   18.8473 C   0  0  0  0  0  0  0  0  0  0  0  0
    2.7511  -14.7748   18.2809 C   0  0  0  0  0  0  0  0  0  0  0  0
    2.3382  -16.0751   18.9879 C   0  0  0  0  0  0  0  0  0  0  0  0
    0.9398  -16.7034   18.6915 C   0  0  0  0  0  0  0  0  0  0  0  0
    0.4748  -16.2177   17.6961 O   0  0  0  0  0  0  0  0  0  0  0  0
    0.3970  -17.7263   19.6011 N   0  0  0  0  0  0  0  0  0  0  0  0
   -0.9313  -18.4015   19.6244 C   0  0  0  0  0  0  0  0  0  0  0  0
   -1.4857  -19.4544   20.6093 C   0  0  0  0  0  0  0  0  0  0  0  0
   -0.7867  -20.1192   21.6023 C   0  0  0  0  0  0  0  0  0  0  0  0
   -1.4507  -21.0612   22.4000 C   0  0  0  0  0  0  0  0  0  0  0  0
   -2.7567  -21.4013   22.2903 N   0  0  0  0  0  0  0  0  0  0  0  0
   -3.4649  -20.8359   21.2944 C   0  0  0  0  0  0  0  0  0  0  0  0
   -4.9106  -21.2629   21.0878 C   0  0  0  0  0  0  0  0  0  0  0  0
   -6.0247  -20.5820   21.8475 C   0  0  0  0  0  0  0  0  0  0  0  0
   -5.6606  -21.9995   22.1756 C   0  0  0  0  0  0  0  0  0  0  0  0
   -2.8475  -19.8709   20.4587 C   0  0  0  0  0  0  0  0  0  0  0  0
    3.2888  -16.5400   19.7508 N   0  0  0  0  0  0  0  0  0  0  0  0
    4.3386  -15.6244   19.6779 N   0  0  0  0  0  0  0  0  0  0  0  0
    2.0707  -13.9635   18.5331 H   0  0  0  0  0  0  0  0  0  0  0  0
    2.8120  -14.9371   17.2026 H   0  0  0  0  0  0  0  0  0  0  0  0
    1.0274  -17.8374   20.3906 H   0  0  0  0  0  0  0  0  0  0  0  0
   -1.6427  -17.5652   19.6405 H   0  0  0  0  0  0  0  0  0  0  0  0
   -1.0174  -18.8437   18.6232 H   0  0  0  0  0  0  0  0  0  0  0  0
    0.2740  -19.9605   21.7500 H   0  0  0  0  0  0  0  0  0  0  0  0
   -0.9051  -21.6006   23.1717 H   0  0  0  0  0  0  0  0  0  0  0  0
   -5.1422  -21.5853   20.0749 H   0  0  0  0  0  0  0  0  0  0  0  0
   -5.7538  -19.8058   22.5515 H   0  0  0  0  0  0  0  0  0  0  0  0
   -6.9606  -20.4087   21.3304 H   0  0  0  0  0  0  0  0  0  0  0  0
   -5.1337  -22.2023   23.1021 H   0  0  0  0  0  0  0  0  0  0  0  0
   -6.3404  -22.7885   21.8770 H   0  0  0  0  0  0  0  0  0  0  0  0
   -3.4482  -19.4289   19.6645 H   0  0  0  0  0  0  0  0  0  0  0  0
    5.1955  -15.7689   20.2021 H   0  0  0  0  0  0  0  0  0  0  0  0
  1  2  2  0
  2  3  1  0
  3  4  1  0
  4  5  1  0
  5  6  2  0
  5  7  1  0
  7  8  1  0
  8  9  1  0
  9 10  2  0
 10 11  1  0
 11 12  2  0
 12 13  1  0
 13 14  1  0
 14 15  1  0
 15 16  1  0
 13 17  2  0
  4 18  2  0
 18 19  1  0
 19  2  1  0
 17  9  1  0
 16 14  1  0
  3 20  1  0
  3 21  1  0
  7 22  1  0
  8 23  1  0
  8 24  1  0
 10 25  1  0
 11 26  1  0
 14 27  1  0
 15 28  1  0
 15 29  1  0
 16 30  1  0
 16 31  1  0
 17 32  1  0
 19 33  1  0
M  END
>  <Energy>  (434) 
63.69238339398995

>  <compound_id>  (434) 
17350

>  <target_id>  (434) 
1

>  <reference_id>  (434) 
98

>  <inspiration_ids>  (434) 
[49, 98]

>  <energy_score>  (434) 
-12.40249849322214

>  <distance_score>  (434) 
14.805914608701007

>  <path>  (434) 
/opt/xchem-fragalysis-2/maxwin/BulkDock/SCRATCH/511014/C17350-P98/C17350-P98.minimised.mol

>  <scratch_subdir>  (434) 
/opt/xchem-fragalysis-2/maxwin/BulkDock/SCRATCH/511014/C17350-P98

>  <fragmenstein_runtime>  (434) 
22.955289602279663

>  <fragmenstein_outcome>  (434) 
too moved

>  <fragmenstein_mode>  (434) 
expansion

>  <fragmenstein_error>  (434) 


$$$$
C17352-P49
     RDKit          3D

 29 30  0  0  0  0  0  0  0  0999 V2000
    3.7618  -15.3514   31.6089 C   0  0  0  0  0  0  0  0  0  0  0  0
    2.6927  -14.3662   31.1032 C   0  0  0  0  0  0  0  0  0  0  0  0
    3.2070  -13.7533   29.8348 N   0  0  0  0  0  0  0  0  0  0  0  0
    4.2714  -12.7677   29.6086 C   0  0  0  0  0  0  0  0  0  0  0  0
    4.9409  -12.1477   30.3894 O   0  0  0  0  0  0  0  0  0  0  0  0
    4.7083  -12.4346   28.1489 C   0  0  0  0  0  0  0  0  0  0  0  0
    4.2272  -12.9090   27.0340 N   0  0  0  0  0  0  0  0  0  0  0  0
    4.9534  -12.3054   26.0054 N   0  0  0  0  0  0  0  0  0  0  0  0
    5.9472  -11.4177   26.4074 C   0  0  0  0  0  0  0  0  0  0  0  0
    6.7193  -10.7868   25.7019 O   0  0  0  0  0  0  0  0  0  0  0  0
    5.8395  -11.4264   27.9102 C   0  0  0  0  0  0  0  0  0  0  0  0
    1.2404  -14.9285   31.2837 C   0  0  0  0  0  0  0  0  0  0  0  0
    0.9355  -16.2986   31.4572 C   0  0  0  0  0  0  0  0  0  0  0  0
   -0.3388  -16.7122   31.8752 C   0  0  0  0  0  0  0  0  0  0  0  0
   -1.3484  -15.8698   32.1593 N   0  0  0  0  0  0  0  0  0  0  0  0
   -1.0605  -14.5576   32.0180 C   0  0  0  0  0  0  0  0  0  0  0  0
    0.1769  -14.0566   31.5757 C   0  0  0  0  0  0  0  0  0  0  0  0
    3.8747  -16.2049   30.9327 H   0  0  0  0  0  0  0  0  0  0  0  0
    3.5187  -15.7312   32.6073 H   0  0  0  0  0  0  0  0  0  0  0  0
    4.7416  -14.8644   31.6741 H   0  0  0  0  0  0  0  0  0  0  0  0
    2.7457  -13.5306   31.8167 H   0  0  0  0  0  0  0  0  0  0  0  0
    2.9148  -14.1398   28.9383 H   0  0  0  0  0  0  0  0  0  0  0  0
    4.7678  -12.5421   25.0364 H   0  0  0  0  0  0  0  0  0  0  0  0
    6.7676  -11.7857   28.3589 H   0  0  0  0  0  0  0  0  0  0  0  0
    5.5523  -10.4405   28.2808 H   0  0  0  0  0  0  0  0  0  0  0  0
    1.6946  -17.0658   31.3415 H   0  0  0  0  0  0  0  0  0  0  0  0
   -0.5615  -17.7662   32.0166 H   0  0  0  0  0  0  0  0  0  0  0  0
   -1.8720  -13.8764   32.2647 H   0  0  0  0  0  0  0  0  0  0  0  0
    0.3161  -12.9796   31.5235 H   0  0  0  0  0  0  0  0  0  0  0  0
  1  2  1  0
  2  3  1  0
  3  4  1  0
  4  5  2  0
  4  6  1  0
  6  7  2  0
  7  8  1  0
  8  9  1  0
  9 10  2  0
  9 11  1  0
  2 12  1  0
 12 13  2  0
 13 14  1  0
 14 15  2  0
 15 16  1  0
 16 17  2  0
 11  6  1  0
 17 12  1  0
  1 18  1  0
  1 19  1  0
  1 20  1  0
  2 21  1  0
  3 22  1  0
  8 23  1  0
 11 24  1  0
 11 25  1  0
 13 26  1  0
 14 27  1  0
 16 28  1  0
 17 29  1  0
M  END
>  <Energy>  (435) 
53.677587409669812

>  <compound_id>  (435) 
17352

>  <target_id>  (435) 
1

>  <reference_id>  (435) 
49

>  <inspiration_ids>  (435) 
[49, 98]

>  <energy_score>  (435) 
-4.195834837341636

>  <distance_score>  (435) 
15.892412377607657

>  <path>  (435) 
/opt/xchem-fragalysis-2/maxwin/BulkDock/SCRATCH/511014/C17352-P49/C17352-P49.minimised.mol

>  <scratch_subdir>  (435) 
/opt/xchem-fragalysis-2/maxwin/BulkDock/SCRATCH/511014/C17352-P49

>  <fragmenstein_runtime>  (435) 
18.484190940856934

>  <fragmenstein_outcome>  (435) 
too moved

>  <fragmenstein_mode>  (435) 
expansion

>  <fragmenstein_error>  (435) 


$$$$
C17352-P98
     RDKit          3D

 29 30  0  0  0  0  0  0  0  0999 V2000
   -2.5185  -14.3252   25.9899 C   0  0  0  0  0  0  0  0  0  0  0  0
   -2.2816  -15.4138   25.1278 C   0  0  0  0  0  0  0  0  0  0  0  0
   -0.6745  -14.4256   24.4794 N   0  0  0  0  0  0  0  0  0  0  0  0
    0.7617  -13.6452   25.4391 C   0  0  0  0  0  0  0  0  0  0  0  0
    0.8651  -13.6804   26.6195 O   0  0  0  0  0  0  0  0  0  0  0  0
    2.1661  -12.7978   24.7475 C   0  0  0  0  0  0  0  0  0  0  0  0
    2.4792  -12.4774   23.5371 N   0  0  0  0  0  0  0  0  0  0  0  0
    3.7357  -11.9346   23.4920 N   0  0  0  0  0  0  0  0  0  0  0  0
    4.3317  -11.7817   24.7207 C   0  0  0  0  0  0  0  0  0  0  0  0
    5.4007  -11.2379   24.9443 O   0  0  0  0  0  0  0  0  0  0  0  0
    3.3246  -12.3991   25.6859 C   0  0  0  0  0  0  0  0  0  0  0  0
   -2.6364  -16.9241   26.4683 C   0  0  0  0  0  0  0  0  0  0  0  0
   -3.5541  -17.0355   27.6428 C   0  0  0  0  0  0  0  0  0  0  0  0
   -4.1862  -18.2462   28.2830 C   0  0  0  0  0  0  0  0  0  0  0  0
   -3.6099  -19.4374   28.1657 N   0  0  0  0  0  0  0  0  0  0  0  0
   -2.4322  -19.3128   27.5052 C   0  0  0  0  0  0  0  0  0  0  0  0
   -1.9222  -18.1311   26.7095 C   0  0  0  0  0  0  0  0  0  0  0  0
   -2.2490  -14.7878   26.9676 H   0  0  0  0  0  0  0  0  0  0  0  0
   -2.0476  -13.4835   25.4815 H   0  0  0  0  0  0  0  0  0  0  0  0
   -3.1937  -13.5428   26.3123 H   0  0  0  0  0  0  0  0  0  0  0  0
   -2.9822  -15.5106   24.3122 H   0  0  0  0  0  0  0  0  0  0  0  0
   -0.5905  -14.1953   23.4999 H   0  0  0  0  0  0  0  0  0  0  0  0
    4.1027  -11.5807   22.6158 H   0  0  0  0  0  0  0  0  0  0  0  0
    3.7487  -13.2847   26.1618 H   0  0  0  0  0  0  0  0  0  0  0  0
    2.9830  -11.6649   26.4166 H   0  0  0  0  0  0  0  0  0  0  0  0
   -3.6873  -16.1891   28.2881 H   0  0  0  0  0  0  0  0  0  0  0  0
   -4.9551  -18.1524   29.0445 H   0  0  0  0  0  0  0  0  0  0  0  0
   -1.7896  -20.1699   27.7025 H   0  0  0  0  0  0  0  0  0  0  0  0
   -0.8642  -18.1727   26.4955 H   0  0  0  0  0  0  0  0  0  0  0  0
  1  2  1  0
  2  3  1  0
  3  4  1  0
  4  5  2  0
  4  6  1  0
  6  7  2  0
  7  8  1  0
  8  9  1  0
  9 10  2  0
  9 11  1  0
  2 12  1  0
 12 13  2  0
 13 14  1  0
 14 15  2  0
 15 16  1  0
 16 17  2  0
 11  6  1  0
 17 12  1  0
  1 18  1  0
  1 19  1  0
  1 20  1  0
  2 21  1  0
  3 22  1  0
  8 23  1  0
 11 24  1  0
 11 25  1  0
 13 26  1  0
 14 27  1  0
 16 28  1  0
 17 29  1  0
M  END
>  <Energy>  (436) 
437.79000709112353

>  <compound_id>  (436) 
17352

>  <target_id>  (436) 
1

>  <reference_id>  (436) 
98

>  <inspiration_ids>  (436) 
[49, 98]

>  <energy_score>  (436) 
379.91658484410897

>  <distance_score>  (436) 
14.630826699395781

>  <path>  (436) 
/opt/xchem-fragalysis-2/maxwin/BulkDock/SCRATCH/511014/C17352-P98/C17352-P98.minimised.mol

>  <scratch_subdir>  (436) 
/opt/xchem-fragalysis-2/maxwin/BulkDock/SCRATCH/511014/C17352-P98

>  <fragmenstein_runtime>  (436) 
17.69426727294922

>  <fragmenstein_outcome>  (436) 
too moved

>  <fragmenstein_mode>  (436) 
expansion

>  <fragmenstein_error>  (436) 


$$$$
C17353-P49
     RDKit          3D

 30 32  0  0  0  0  0  0  0  0999 V2000
    5.8721   -5.0321   23.0355 O   0  0  0  0  0  0  0  0  0  0  0  0
    5.0013   -4.8317   23.8668 C   0  0  0  0  0  0  0  0  0  0  0  0
    3.5083   -5.0021   23.7258 C   0  0  0  0  0  0  0  0  0  0  0  0
    3.0296   -4.6629   25.1309 C   0  0  0  0  0  0  0  0  0  0  0  0
    1.5234   -4.7114   25.4830 C   0  0  0  0  0  0  0  0  0  0  0  0
    0.8116   -4.7457   24.5192 O   0  0  0  0  0  0  0  0  0  0  0  0
    1.1993   -4.7101   26.9033 N   0  0  0  0  0  0  0  0  0  0  0  0
   -0.0271   -4.8410   27.5612 C   0  0  0  0  0  0  0  0  0  0  0  0
   -0.4372   -4.8948   28.8913 C   0  0  0  0  0  0  0  0  0  0  0  0
   -1.8568   -5.2253   28.8970 C   0  0  0  0  0  0  0  0  0  0  0  0
   -2.8153   -5.6360   29.9987 C   0  0  0  0  0  0  0  0  0  0  0  0
   -4.2057   -5.6876   29.7668 C   0  0  0  0  0  0  0  0  0  0  0  0
   -5.0806   -6.1413   30.7515 C   0  0  0  0  0  0  0  0  0  0  0  0
   -4.6798   -6.4975   31.9832 N   0  0  0  0  0  0  0  0  0  0  0  0
   -3.3503   -6.4176   32.2191 C   0  0  0  0  0  0  0  0  0  0  0  0
   -2.4006   -6.0161   31.2761 C   0  0  0  0  0  0  0  0  0  0  0  0
   -2.2870   -5.2293   27.6226 N   0  0  0  0  0  0  0  0  0  0  0  0
   -1.1989   -4.9821   26.8624 N   0  0  0  0  0  0  0  0  0  0  0  0
    3.9988   -4.3288   25.9360 N   0  0  0  0  0  0  0  0  0  0  0  0
    5.1653   -4.4122   25.1839 N   0  0  0  0  0  0  0  0  0  0  0  0
    3.1064   -4.2916   23.0013 H   0  0  0  0  0  0  0  0  0  0  0  0
    3.2574   -6.0355   23.4800 H   0  0  0  0  0  0  0  0  0  0  0  0
    2.0570   -4.5899   27.4405 H   0  0  0  0  0  0  0  0  0  0  0  0
    0.2036   -4.8226   29.7584 H   0  0  0  0  0  0  0  0  0  0  0  0
   -4.6219   -5.3459   28.8217 H   0  0  0  0  0  0  0  0  0  0  0  0
   -6.1508   -6.1911   30.5714 H   0  0  0  0  0  0  0  0  0  0  0  0
   -3.0449   -6.7009   33.2237 H   0  0  0  0  0  0  0  0  0  0  0  0
   -1.3552   -5.9866   31.5626 H   0  0  0  0  0  0  0  0  0  0  0  0
   -1.3052   -4.9559   25.8522 H   0  0  0  0  0  0  0  0  0  0  0  0
    6.0695   -4.2042   25.5956 H   0  0  0  0  0  0  0  0  0  0  0  0
  1  2  2  0
  2  3  1  0
  3  4  1  0
  4  5  1  0
  5  6  2  0
  5  7  1  0
  7  8  1  0
  8  9  2  0
  9 10  1  0
 10 11  1  0
 11 12  2  0
 12 13  1  0
 13 14  2  0
 14 15  1  0
 15 16  2  0
 10 17  2  0
 17 18  1  0
  4 19  2  0
 19 20  1  0
 20  2  1  0
 18  8  1  0
 16 11  1  0
  3 21  1  0
  3 22  1  0
  7 23  1  0
  9 24  1  0
 12 25  1  0
 13 26  1  0
 15 27  1  0
 16 28  1  0
 18 29  1  0
 20 30  1  0
M  END
>  <Energy>  (437) 
64.816913550585184

>  <compound_id>  (437) 
17353

>  <target_id>  (437) 
1

>  <reference_id>  (437) 
49

>  <inspiration_ids>  (437) 
[49, 98]

>  <energy_score>  (437) 
-7.261607788926199

>  <distance_score>  (437) 
16.023950054536627

>  <path>  (437) 
/opt/xchem-fragalysis-2/maxwin/BulkDock/SCRATCH/511014/C17353-P49/C17353-P49.minimised.mol

>  <scratch_subdir>  (437) 
/opt/xchem-fragalysis-2/maxwin/BulkDock/SCRATCH/511014/C17353-P49

>  <fragmenstein_runtime>  (437) 
14.179968118667603

>  <fragmenstein_outcome>  (437) 
too moved

>  <fragmenstein_mode>  (437) 
expansion

>  <fragmenstein_error>  (437) 


$$$$
C17353-P98
     RDKit          3D

 30 32  0  0  0  0  0  0  0  0999 V2000
    6.6103   -8.9049   20.3853 O   0  0  0  0  0  0  0  0  0  0  0  0
    5.7485   -9.4003   21.0902 C   0  0  0  0  0  0  0  0  0  0  0  0
    5.5679  -10.8394   21.4370 C   0  0  0  0  0  0  0  0  0  0  0  0
    4.2010  -10.8457   22.3077 C   0  0  0  0  0  0  0  0  0  0  0  0
    3.1541  -12.4449   22.5684 C   0  0  0  0  0  0  0  0  0  0  0  0
    3.3484  -13.2051   21.6358 O   0  0  0  0  0  0  0  0  0  0  0  0
    1.9508  -12.7206   23.8968 N   0  0  0  0  0  0  0  0  0  0  0  0
    0.6755  -14.0510   24.1377 C   0  0  0  0  0  0  0  0  0  0  0  0
   -0.9845  -14.6216   24.3603 C   0  0  0  0  0  0  0  0  0  0  0  0
   -2.1888  -14.8153   25.7903 C   0  0  0  0  0  0  0  0  0  0  0  0
   -2.5352  -16.0229   27.3560 C   0  0  0  0  0  0  0  0  0  0  0  0
   -3.3636  -17.3195   27.2704 C   0  0  0  0  0  0  0  0  0  0  0  0
   -5.0549  -18.1162   27.6904 C   0  0  0  0  0  0  0  0  0  0  0  0
   -6.0994  -17.6384   28.8067 N   0  0  0  0  0  0  0  0  0  0  0  0
   -5.4095  -16.4812   29.3553 C   0  0  0  0  0  0  0  0  0  0  0  0
   -3.7678  -16.0302   28.5804 C   0  0  0  0  0  0  0  0  0  0  0  0
   -1.4972  -13.4922   25.4569 N   0  0  0  0  0  0  0  0  0  0  0  0
    0.2952  -13.4763   25.8152 N   0  0  0  0  0  0  0  0  0  0  0  0
    3.8265   -9.5959   22.3979 N   0  0  0  0  0  0  0  0  0  0  0  0
    4.7531   -8.7646   21.7977 N   0  0  0  0  0  0  0  0  0  0  0  0
    6.4516  -11.0971   22.0315 H   0  0  0  0  0  0  0  0  0  0  0  0
    5.4790  -11.4508   20.5377 H   0  0  0  0  0  0  0  0  0  0  0  0
    1.9240  -11.9185   24.4900 H   0  0  0  0  0  0  0  0  0  0  0  0
   -1.4159  -15.0099   23.4663 H   0  0  0  0  0  0  0  0  0  0  0  0
   -2.6616  -18.0493   26.7729 H   0  0  0  0  0  0  0  0  0  0  0  0
   -5.3250  -19.1469   27.3846 H   0  0  0  0  0  0  0  0  0  0  0  0
   -5.8502  -16.0185   30.2185 H   0  0  0  0  0  0  0  0  0  0  0  0
   -3.3408  -15.2966   29.4158 H   0  0  0  0  0  0  0  0  0  0  0  0
    0.7382  -12.5874   25.9412 H   0  0  0  0  0  0  0  0  0  0  0  0
    4.5222   -7.7883   21.6491 H   0  0  0  0  0  0  0  0  0  0  0  0
  1  2  2  0
  2  3  1  0
  3  4  1  0
  4  5  1  0
  5  6  2  0
  5  7  1  0
  7  8  1  0
  8  9  2  0
  9 10  1  0
 10 11  1  0
 11 12  2  0
 12 13  1  0
 13 14  2  0
 14 15  1  0
 15 16  2  0
 10 17  2  0
 17 18  1  0
  4 19  2  0
 19 20  1  0
 20  2  1  0
 18  8  1  0
 16 11  1  0
  3 21  1  0
  3 22  1  0
  7 23  1  0
  9 24  1  0
 12 25  1  0
 13 26  1  0
 15 27  1  0
 16 28  1  0
 18 29  1  0
 20 30  1  0
M  END
>  <Energy>  (438) 
1051.3788560145285

>  <compound_id>  (438) 
17353

>  <target_id>  (438) 
1

>  <reference_id>  (438) 
98

>  <inspiration_ids>  (438) 
[49, 98]

>  <energy_score>  (438) 
979.3003346750312

>  <distance_score>  (438) 
12.105104538355423

>  <path>  (438) 
/opt/xchem-fragalysis-2/maxwin/BulkDock/SCRATCH/511014/C17353-P98/C17353-P98.minimised.mol

>  <scratch_subdir>  (438) 
/opt/xchem-fragalysis-2/maxwin/BulkDock/SCRATCH/511014/C17353-P98

>  <fragmenstein_runtime>  (438) 
20.24595046043396

>  <fragmenstein_outcome>  (438) 
too moved

>  <fragmenstein_mode>  (438) 
expansion

>  <fragmenstein_error>  (438) 


$$$$
C17357-P49
     RDKit          3D

 41 42  0  0  0  0  0  0  0  0999 V2000
   -4.0762  -18.3794   25.7919 C   0  0  0  0  0  0  0  0  0  0  0  0
   -5.3992  -17.8988   25.9794 O   0  0  0  0  0  0  0  0  0  0  0  0
   -5.5997  -16.5369   26.3523 C   0  0  0  0  0  0  0  0  0  0  0  0
   -4.5821  -15.9441   27.3526 C   0  0  0  0  0  0  0  0  0  0  0  0
   -4.1184  -14.6386   26.8645 N   0  0  0  0  0  0  0  0  0  0  0  0
   -5.1755  -13.6506   27.1287 C   0  0  0  0  0  0  0  0  0  0  0  0
   -2.8163  -14.2124   27.4580 C   0  0  0  0  0  0  0  0  0  0  0  0
   -1.9647  -13.2882   26.5285 C   0  0  0  0  0  0  0  0  0  0  0  0
   -2.4873  -13.1591   25.0055 C   0  0  0  0  0  0  0  0  0  0  0  0
   -1.4998  -12.3452   24.0219 C   0  0  0  0  0  0  0  0  0  0  0  0
    0.1763  -11.6417   24.5091 N   0  0  0  0  0  0  0  0  0  0  0  0
    0.5838  -11.9303   26.0568 C   0  0  0  0  0  0  0  0  0  0  0  0
    1.9409  -11.6409   26.1798 N   0  0  0  0  0  0  0  0  0  0  0  0
    2.8443  -11.8045   27.2735 C   0  0  0  0  0  0  0  0  0  0  0  0
    2.6540  -12.1594   28.3952 O   0  0  0  0  0  0  0  0  0  0  0  0
    4.2994  -11.4276   26.7461 C   0  0  0  0  0  0  0  0  0  0  0  0
    4.9341  -12.1283   25.8402 N   0  0  0  0  0  0  0  0  0  0  0  0
    6.0528  -11.4002   25.4816 N   0  0  0  0  0  0  0  0  0  0  0  0
    6.1405  -10.1454   26.0650 C   0  0  0  0  0  0  0  0  0  0  0  0
    6.9474   -9.2720   25.7920 O   0  0  0  0  0  0  0  0  0  0  0  0
    5.0090  -10.1313   27.0850 C   0  0  0  0  0  0  0  0  0  0  0  0
   -0.4512  -12.6571   27.0366 C   0  0  0  0  0  0  0  0  0  0  0  0
   -3.4021  -17.5920   25.4550 H   0  0  0  0  0  0  0  0  0  0  0  0
   -4.0886  -19.1892   25.0609 H   0  0  0  0  0  0  0  0  0  0  0  0
   -3.6426  -18.7953   26.7026 H   0  0  0  0  0  0  0  0  0  0  0  0
   -6.6173  -16.4238   26.7454 H   0  0  0  0  0  0  0  0  0  0  0  0
   -5.6686  -15.9348   25.4467 H   0  0  0  0  0  0  0  0  0  0  0  0
   -3.7299  -16.6139   27.4898 H   0  0  0  0  0  0  0  0  0  0  0  0
   -5.0365  -15.8149   28.3401 H   0  0  0  0  0  0  0  0  0  0  0  0
   -4.8837  -12.6653   26.7490 H   0  0  0  0  0  0  0  0  0  0  0  0
   -6.1086  -13.9076   26.6165 H   0  0  0  0  0  0  0  0  0  0  0  0
   -5.3851  -13.5451   28.1997 H   0  0  0  0  0  0  0  0  0  0  0  0
   -2.9550  -13.7172   28.4257 H   0  0  0  0  0  0  0  0  0  0  0  0
   -2.1798  -15.0911   27.6172 H   0  0  0  0  0  0  0  0  0  0  0  0
   -3.3513  -13.6924   24.6295 H   0  0  0  0  0  0  0  0  0  0  0  0
   -1.2812  -12.8201   23.0475 H   0  0  0  0  0  0  0  0  0  0  0  0
    2.4675  -11.4022   25.3481 H   0  0  0  0  0  0  0  0  0  0  0  0
    6.7205  -11.7585   24.8056 H   0  0  0  0  0  0  0  0  0  0  0  0
    4.3618   -9.2668   26.9479 H   0  0  0  0  0  0  0  0  0  0  0  0
    5.4078  -10.1785   28.1001 H   0  0  0  0  0  0  0  0  0  0  0  0
   -0.1319  -12.8897   28.0523 H   0  0  0  0  0  0  0  0  0  0  0  0
  1  2  1  0
  2  3  1  0
  3  4  1  0
  4  5  1  0
  5  6  1  0
  5  7  1  0
  7  8  1  0
  8  9  2  0
  9 10  1  0
 10 11  2  0
 11 12  1  0
 12 13  1  0
 13 14  1  0
 14 15  2  0
 14 16  1  0
 16 17  2  0
 17 18  1  0
 18 19  1  0
 19 20  2  0
 19 21  1  0
 12 22  2  0
 22  8  1  0
 21 16  1  0
  1 23  1  0
  1 24  1  0
  1 25  1  0
  3 26  1  0
  3 27  1  0
  4 28  1  0
  4 29  1  0
  6 30  1  0
  6 31  1  0
  6 32  1  0
  7 33  1  0
  7 34  1  0
  9 35  1  0
 10 36  1  0
 13 37  1  0
 18 38  1  0
 21 39  1  0
 21 40  1  0
 22 41  1  0
M  END
>  <Energy>  (439) 
232.34846939362632

>  <compound_id>  (439) 
17357

>  <target_id>  (439) 
1

>  <reference_id>  (439) 
49

>  <inspiration_ids>  (439) 
[49, 98]

>  <energy_score>  (439) 
132.36648764157155

>  <distance_score>  (439) 
13.603599321762573

>  <path>  (439) 
/opt/xchem-fragalysis-2/maxwin/BulkDock/SCRATCH/511014/C17357-P49/C17357-P49.minimised.mol

>  <scratch_subdir>  (439) 
/opt/xchem-fragalysis-2/maxwin/BulkDock/SCRATCH/511014/C17357-P49

>  <fragmenstein_runtime>  (439) 
34.86033082008362

>  <fragmenstein_outcome>  (439) 
too moved

>  <fragmenstein_mode>  (439) 
expansion

>  <fragmenstein_error>  (439) 


$$$$
C17357-P98
     RDKit          3D

 41 42  0  0  0  0  0  0  0  0999 V2000
   -8.6191  -15.3581   26.4236 C   0  0  0  0  0  0  0  0  0  0  0  0
   -7.7470  -15.6820   27.4963 O   0  0  0  0  0  0  0  0  0  0  0  0
   -6.4544  -15.0919   27.4871 C   0  0  0  0  0  0  0  0  0  0  0  0
   -6.4362  -13.5458   27.4460 C   0  0  0  0  0  0  0  0  0  0  0  0
   -5.8252  -12.9082   26.2261 N   0  0  0  0  0  0  0  0  0  0  0  0
   -6.5332  -13.3461   25.0289 C   0  0  0  0  0  0  0  0  0  0  0  0
   -5.7759  -11.4094   26.4172 C   0  0  0  0  0  0  0  0  0  0  0  0
   -5.3759  -10.4102   25.2760 C   0  0  0  0  0  0  0  0  0  0  0  0
   -6.2945  -10.2242   24.2398 C   0  0  0  0  0  0  0  0  0  0  0  0
   -5.9969   -9.3407   23.2141 C   0  0  0  0  0  0  0  0  0  0  0  0
   -4.8714   -8.5961   23.1394 N   0  0  0  0  0  0  0  0  0  0  0  0
   -3.9838   -8.6671   24.1491 C   0  0  0  0  0  0  0  0  0  0  0  0
   -2.8425   -7.8834   23.8304 N   0  0  0  0  0  0  0  0  0  0  0  0
   -1.7633   -7.3955   24.6580 C   0  0  0  0  0  0  0  0  0  0  0  0
   -1.5951   -7.4602   25.8419 O   0  0  0  0  0  0  0  0  0  0  0  0
   -0.5928   -6.7758   23.8065 C   0  0  0  0  0  0  0  0  0  0  0  0
   -0.5745   -6.7135   22.5023 N   0  0  0  0  0  0  0  0  0  0  0  0
    0.6887   -6.2567   22.1489 N   0  0  0  0  0  0  0  0  0  0  0  0
    1.5637   -6.0603   23.2126 C   0  0  0  0  0  0  0  0  0  0  0  0
    2.7472   -5.7612   23.1665 O   0  0  0  0  0  0  0  0  0  0  0  0
    0.7045   -6.3041   24.4351 C   0  0  0  0  0  0  0  0  0  0  0  0
   -4.2135   -9.5450   25.2479 C   0  0  0  0  0  0  0  0  0  0  0  0
   -9.0154  -14.3474   26.5511 H   0  0  0  0  0  0  0  0  0  0  0  0
   -9.4693  -16.0443   26.4296 H   0  0  0  0  0  0  0  0  0  0  0  0
   -8.1319  -15.4408   25.4542 H   0  0  0  0  0  0  0  0  0  0  0  0
   -5.8379  -15.5153   26.6905 H   0  0  0  0  0  0  0  0  0  0  0  0
   -5.9751  -15.4129   28.4197 H   0  0  0  0  0  0  0  0  0  0  0  0
   -7.4410  -13.1427   27.6187 H   0  0  0  0  0  0  0  0  0  0  0  0
   -5.8208  -13.2222   28.2958 H   0  0  0  0  0  0  0  0  0  0  0  0
   -6.1003  -12.8933   24.1374 H   0  0  0  0  0  0  0  0  0  0  0  0
   -6.4041  -14.4176   24.8648 H   0  0  0  0  0  0  0  0  0  0  0  0
   -7.5967  -13.0908   25.0534 H   0  0  0  0  0  0  0  0  0  0  0  0
   -6.7560  -11.0644   26.7764 H   0  0  0  0  0  0  0  0  0  0  0  0
   -5.0695  -11.2195   27.2360 H   0  0  0  0  0  0  0  0  0  0  0  0
   -7.2314  -10.7688   24.2070 H   0  0  0  0  0  0  0  0  0  0  0  0
   -6.6822   -9.2139   22.3803 H   0  0  0  0  0  0  0  0  0  0  0  0
   -2.6931   -7.5745   22.8729 H   0  0  0  0  0  0  0  0  0  0  0  0
    0.9693   -6.2333   21.1730 H   0  0  0  0  0  0  0  0  0  0  0  0
    1.1373   -7.0782   25.0667 H   0  0  0  0  0  0  0  0  0  0  0  0
    0.5404   -5.3750   24.9840 H   0  0  0  0  0  0  0  0  0  0  0  0
   -3.4994   -9.5929   26.0620 H   0  0  0  0  0  0  0  0  0  0  0  0
  1  2  1  0
  2  3  1  0
  3  4  1  0
  4  5  1  0
  5  6  1  0
  5  7  1  0
  7  8  1  0
  8  9  2  0
  9 10  1  0
 10 11  2  0
 11 12  1  0
 12 13  1  0
 13 14  1  0
 14 15  2  0
 14 16  1  0
 16 17  2  0
 17 18  1  0
 18 19  1  0
 19 20  2  0
 19 21  1  0
 12 22  2  0
 22  8  1  0
 21 16  1  0
  1 23  1  0
  1 24  1  0
  1 25  1  0
  3 26  1  0
  3 27  1  0
  4 28  1  0
  4 29  1  0
  6 30  1  0
  6 31  1  0
  6 32  1  0
  7 33  1  0
  7 34  1  0
  9 35  1  0
 10 36  1  0
 13 37  1  0
 18 38  1  0
 21 39  1  0
 21 40  1  0
 22 41  1  0
M  END
>  <Energy>  (440) 
60.233665728875813

>  <compound_id>  (440) 
17357

>  <target_id>  (440) 
1

>  <reference_id>  (440) 
98

>  <inspiration_ids>  (440) 
[49, 98]

>  <energy_score>  (440) 
-39.74831602317761

>  <distance_score>  (440) 
13.860781470360354

>  <path>  (440) 
/opt/xchem-fragalysis-2/maxwin/BulkDock/SCRATCH/511014/C17357-P98/C17357-P98.minimised.mol

>  <scratch_subdir>  (440) 
/opt/xchem-fragalysis-2/maxwin/BulkDock/SCRATCH/511014/C17357-P98

>  <fragmenstein_runtime>  (440) 
37.9659628868103

>  <fragmenstein_outcome>  (440) 
too moved

>  <fragmenstein_mode>  (440) 
expansion

>  <fragmenstein_error>  (440) 


$$$$
C17361-P49
     RDKit          3D

 38 40  0  0  0  0  0  0  0  0999 V2000
    4.3746  -11.8598   25.1567 O   0  0  0  0  0  0  0  0  0  0  0  0
    3.3632  -12.4221   25.5547 C   0  0  0  0  0  0  0  0  0  0  0  0
    1.8064  -11.9434   25.3503 C   0  0  0  0  0  0  0  0  0  0  0  0
    0.8137  -13.3015   26.4022 C   0  0  0  0  0  0  0  0  0  0  0  0
   -1.3298  -13.5644   26.8433 C   0  0  0  0  0  0  0  0  0  0  0  0
   -1.6907  -12.6990   27.4706 O   0  0  0  0  0  0  0  0  0  0  0  0
   -2.6779  -14.7926   26.7004 N   0  0  0  0  0  0  0  0  0  0  0  0
   -4.4281  -14.8887   27.5476 C   0  0  0  0  0  0  0  0  0  0  0  0
   -6.0165  -15.9349   28.6564 C   0  0  0  0  0  0  0  0  0  0  0  0
   -6.8463  -17.7320   29.5947 C   0  0  0  0  0  0  0  0  0  0  0  0
   -6.3458  -19.0929   31.1805 C   0  0  0  0  0  0  0  0  0  0  0  0
   -6.9021  -20.9721   31.8601 C   0  0  0  0  0  0  0  0  0  0  0  0
   -8.1793  -22.2068   30.6280 C   0  0  0  0  0  0  0  0  0  0  0  0
   -8.6578  -23.4900   30.8600 N   0  0  0  0  0  0  0  0  0  0  0  0
   -9.5508  -24.1214   29.9226 C   0  0  0  0  0  0  0  0  0  0  0  0
  -10.0997  -24.9099   31.1127 C   0  0  0  0  0  0  0  0  0  0  0  0
   -9.5506  -23.7574   31.9570 C   0  0  0  0  0  0  0  0  0  0  0  0
   -8.0429  -21.0825   28.8075 N   0  0  0  0  0  0  0  0  0  0  0  0
   -7.3012  -19.2773   28.0656 C   0  0  0  0  0  0  0  0  0  0  0  0
    1.7749  -14.1779   26.7032 N   0  0  0  0  0  0  0  0  0  0  0  0
    3.2110  -13.7251   26.2180 N   0  0  0  0  0  0  0  0  0  0  0  0
    1.7576  -10.8679   25.6266 H   0  0  0  0  0  0  0  0  0  0  0  0
    1.3911  -11.7948   24.3656 H   0  0  0  0  0  0  0  0  0  0  0  0
   -2.2994  -15.5992   26.2050 H   0  0  0  0  0  0  0  0  0  0  0  0
   -4.2692  -15.6303   26.6871 H   0  0  0  0  0  0  0  0  0  0  0  0
   -3.9679  -14.4741   28.4423 H   0  0  0  0  0  0  0  0  0  0  0  0
   -6.3158  -15.1391   29.3957 H   0  0  0  0  0  0  0  0  0  0  0  0
   -6.9263  -15.6756   28.0456 H   0  0  0  0  0  0  0  0  0  0  0  0
   -5.5421  -18.6399   31.8205 H   0  0  0  0  0  0  0  0  0  0  0  0
   -6.3956  -21.6419   32.5006 H   0  0  0  0  0  0  0  0  0  0  0  0
  -10.2609  -23.4259   29.4613 H   0  0  0  0  0  0  0  0  0  0  0  0
   -9.0322  -24.7054   29.1589 H   0  0  0  0  0  0  0  0  0  0  0  0
   -9.6061  -25.8700   31.2923 H   0  0  0  0  0  0  0  0  0  0  0  0
  -11.1820  -25.0441   31.1344 H   0  0  0  0  0  0  0  0  0  0  0  0
  -10.2630  -22.9448   32.1418 H   0  0  0  0  0  0  0  0  0  0  0  0
   -9.0372  -24.0233   32.8791 H   0  0  0  0  0  0  0  0  0  0  0  0
   -7.0312  -19.2956   27.0609 H   0  0  0  0  0  0  0  0  0  0  0  0
    3.9954  -14.2081   26.6470 H   0  0  0  0  0  0  0  0  0  0  0  0
  1  2  2  0
  2  3  1  0
  3  4  1  0
  4  5  1  0
  5  6  2  0
  5  7  1  0
  7  8  1  0
  8  9  1  0
  9 10  1  0
 10 11  2  0
 11 12  1  0
 12 13  2  0
 13 14  1  0
 14 15  1  0
 15 16  1  0
 16 17  1  0
 13 18  1  0
 18 19  2  0
  4 20  2  0
 20 21  1  0
 21  2  1  0
 19 10  1  0
 17 14  1  0
  3 22  1  0
  3 23  1  0
  7 24  1  0
  8 25  1  0
  8 26  1  0
  9 27  1  0
  9 28  1  0
 11 29  1  0
 12 30  1  0
 15 31  1  0
 15 32  1  0
 16 33  1  0
 16 34  1  0
 17 35  1  0
 17 36  1  0
 19 37  1  0
 21 38  1  0
M  END
>  <Energy>  (441) 
2209.4460004975604

>  <compound_id>  (441) 
17361

>  <target_id>  (441) 
1

>  <reference_id>  (441) 
49

>  <inspiration_ids>  (441) 
[49, 98]

>  <energy_score>  (441) 
2138.8210761429714

>  <distance_score>  (441) 
12.74438503362371

>  <path>  (441) 
/opt/xchem-fragalysis-2/maxwin/BulkDock/SCRATCH/511014/C17361-P49/C17361-P49.minimised.mol

>  <scratch_subdir>  (441) 
/opt/xchem-fragalysis-2/maxwin/BulkDock/SCRATCH/511014/C17361-P49

>  <fragmenstein_runtime>  (441) 
22.823488235473633

>  <fragmenstein_outcome>  (441) 
too moved

>  <fragmenstein_mode>  (441) 
expansion

>  <fragmenstein_error>  (441) 


$$$$
C17361-P98
     RDKit          3D

 38 40  0  0  0  0  0  0  0  0999 V2000
    4.7112  -13.7039   17.3804 O   0  0  0  0  0  0  0  0  0  0  0  0
    4.1246  -14.5622   18.0199 C   0  0  0  0  0  0  0  0  0  0  0  0
    2.7850  -15.2422   17.7417 C   0  0  0  0  0  0  0  0  0  0  0  0
    2.6016  -16.0505   19.0133 C   0  0  0  0  0  0  0  0  0  0  0  0
    1.1916  -16.6946   19.5233 C   0  0  0  0  0  0  0  0  0  0  0  0
    0.6185  -17.5903   18.9883 O   0  0  0  0  0  0  0  0  0  0  0  0
    0.8275  -15.8911   20.6766 N   0  0  0  0  0  0  0  0  0  0  0  0
   -0.4661  -16.0008   21.7320 C   0  0  0  0  0  0  0  0  0  0  0  0
   -1.2205  -14.9135   23.4160 C   0  0  0  0  0  0  0  0  0  0  0  0
   -2.1674  -14.8743   25.1969 C   0  0  0  0  0  0  0  0  0  0  0  0
   -2.2713  -15.5142   26.7924 C   0  0  0  0  0  0  0  0  0  0  0  0
   -2.4217  -17.2406   27.1010 C   0  0  0  0  0  0  0  0  0  0  0  0
   -2.2105  -18.3694   26.2659 C   0  0  0  0  0  0  0  0  0  0  0  0
   -2.8988  -19.9627   26.1669 N   0  0  0  0  0  0  0  0  0  0  0  0
   -3.9969  -20.4322   25.2569 C   0  0  0  0  0  0  0  0  0  0  0  0
   -3.1108  -21.4869   24.6412 C   0  0  0  0  0  0  0  0  0  0  0  0
   -2.7120  -21.5404   26.1237 C   0  0  0  0  0  0  0  0  0  0  0  0
   -2.5287  -17.4954   25.3150 N   0  0  0  0  0  0  0  0  0  0  0  0
   -2.7897  -15.9558   24.8680 C   0  0  0  0  0  0  0  0  0  0  0  0
    3.6359  -15.9637   19.8144 N   0  0  0  0  0  0  0  0  0  0  0  0
    4.5526  -15.1323   19.2084 N   0  0  0  0  0  0  0  0  0  0  0  0
    1.9987  -14.4965   17.6275 H   0  0  0  0  0  0  0  0  0  0  0  0
    2.8551  -15.9049   16.8780 H   0  0  0  0  0  0  0  0  0  0  0  0
    1.5198  -15.1585   20.8017 H   0  0  0  0  0  0  0  0  0  0  0  0
   -1.2088  -16.0158   20.8511 H   0  0  0  0  0  0  0  0  0  0  0  0
   -0.4426  -17.1111   21.7684 H   0  0  0  0  0  0  0  0  0  0  0  0
   -0.6441  -14.0430   23.0662 H   0  0  0  0  0  0  0  0  0  0  0  0
   -0.4779  -14.5515   24.1899 H   0  0  0  0  0  0  0  0  0  0  0  0
   -2.2465  -14.9546   27.7135 H   0  0  0  0  0  0  0  0  0  0  0  0
   -3.2649  -17.2933   27.7448 H   0  0  0  0  0  0  0  0  0  0  0  0
   -4.6350  -19.7162   24.8474 H   0  0  0  0  0  0  0  0  0  0  0  0
   -4.8151  -21.0186   25.6874 H   0  0  0  0  0  0  0  0  0  0  0  0
   -3.6272  -22.3748   24.2632 H   0  0  0  0  0  0  0  0  0  0  0  0
   -2.4093  -21.1548   23.8758 H   0  0  0  0  0  0  0  0  0  0  0  0
   -1.9496  -22.1275   26.6329 H   0  0  0  0  0  0  0  0  0  0  0  0
   -3.5211  -22.1612   26.5844 H   0  0  0  0  0  0  0  0  0  0  0  0
   -3.3973  -15.7291   24.0022 H   0  0  0  0  0  0  0  0  0  0  0  0
    5.4048  -14.8598   19.6865 H   0  0  0  0  0  0  0  0  0  0  0  0
  1  2  2  0
  2  3  1  0
  3  4  1  0
  4  5  1  0
  5  6  2  0
  5  7  1  0
  7  8  1  0
  8  9  1  0
  9 10  1  0
 10 11  2  0
 11 12  1  0
 12 13  2  0
 13 14  1  0
 14 15  1  0
 15 16  1  0
 16 17  1  0
 13 18  1  0
 18 19  2  0
  4 20  2  0
 20 21  1  0
 21  2  1  0
 19 10  1  0
 17 14  1  0
  3 22  1  0
  3 23  1  0
  7 24  1  0
  8 25  1  0
  8 26  1  0
  9 27  1  0
  9 28  1  0
 11 29  1  0
 12 30  1  0
 15 31  1  0
 15 32  1  0
 16 33  1  0
 16 34  1  0
 17 35  1  0
 17 36  1  0
 19 37  1  0
 21 38  1  0
M  END
>  <Energy>  (442) 
727.95512748573356

>  <compound_id>  (442) 
17361

>  <target_id>  (442) 
1

>  <reference_id>  (442) 
98

>  <inspiration_ids>  (442) 
[49, 98]

>  <energy_score>  (442) 
657.3302031311059

>  <distance_score>  (442) 
13.703673420366606

>  <path>  (442) 
/opt/xchem-fragalysis-2/maxwin/BulkDock/SCRATCH/511014/C17361-P98/C17361-P98.minimised.mol

>  <scratch_subdir>  (442) 
/opt/xchem-fragalysis-2/maxwin/BulkDock/SCRATCH/511014/C17361-P98

>  <fragmenstein_runtime>  (442) 
27.2339346408844

>  <fragmenstein_outcome>  (442) 
too moved

>  <fragmenstein_mode>  (442) 
expansion

>  <fragmenstein_error>  (442) 


$$$$
C17362-P49
     RDKit          3D

 32 33  0  0  0  0  0  0  0  0999 V2000
   -7.6110  -17.2945   21.0301 C   0  0  0  0  0  0  0  0  0  0  0  0
   -6.8209  -18.2342   21.8958 C   0  0  0  0  0  0  0  0  0  0  0  0
   -7.2737  -18.4527   23.2167 C   0  0  0  0  0  0  0  0  0  0  0  0
   -6.5829  -19.3247   24.0380 C   0  0  0  0  0  0  0  0  0  0  0  0
   -5.5317  -20.0456   23.6206 N   0  0  0  0  0  0  0  0  0  0  0  0
   -5.1057  -19.8109   22.3514 C   0  0  0  0  0  0  0  0  0  0  0  0
   -5.6374  -18.8604   21.4587 C   0  0  0  0  0  0  0  0  0  0  0  0
   -4.8605  -18.5920   20.1360 C   0  0  0  0  0  0  0  0  0  0  0  0
   -4.8495  -17.1519   19.4553 C   0  0  0  0  0  0  0  0  0  0  0  0
   -3.6765  -16.5760   18.7099 N   0  0  0  0  0  0  0  0  0  0  0  0
   -3.1753  -16.8381   17.3640 C   0  0  0  0  0  0  0  0  0  0  0  0
   -3.5250  -17.6382   16.5424 O   0  0  0  0  0  0  0  0  0  0  0  0
   -2.0626  -15.8563   16.8322 C   0  0  0  0  0  0  0  0  0  0  0  0
   -2.3146  -14.6611   16.3590 N   0  0  0  0  0  0  0  0  0  0  0  0
   -1.1315  -14.1867   15.8052 N   0  0  0  0  0  0  0  0  0  0  0  0
   -0.0272  -15.0115   15.9835 C   0  0  0  0  0  0  0  0  0  0  0  0
    1.1319  -14.7418   15.7079 O   0  0  0  0  0  0  0  0  0  0  0  0
   -0.6127  -16.2493   16.6476 C   0  0  0  0  0  0  0  0  0  0  0  0
   -8.6577  -17.2539   21.3519 H   0  0  0  0  0  0  0  0  0  0  0  0
   -7.6212  -17.6361   19.9910 H   0  0  0  0  0  0  0  0  0  0  0  0
   -7.1988  -16.2833   21.0869 H   0  0  0  0  0  0  0  0  0  0  0  0
   -8.1497  -17.9382   23.6000 H   0  0  0  0  0  0  0  0  0  0  0  0
   -6.8622  -19.4704   25.0746 H   0  0  0  0  0  0  0  0  0  0  0  0
   -4.2322  -20.3979   22.0710 H   0  0  0  0  0  0  0  0  0  0  0  0
   -5.2422  -19.3055   19.3941 H   0  0  0  0  0  0  0  0  0  0  0  0
   -3.8125  -18.8663   20.2982 H   0  0  0  0  0  0  0  0  0  0  0  0
   -5.6754  -17.1296   18.7349 H   0  0  0  0  0  0  0  0  0  0  0  0
   -5.0663  -16.3955   20.2136 H   0  0  0  0  0  0  0  0  0  0  0  0
   -3.0834  -15.8748   19.1566 H   0  0  0  0  0  0  0  0  0  0  0  0
   -1.0776  -13.2511   15.4187 H   0  0  0  0  0  0  0  0  0  0  0  0
   -0.5258  -17.1187   15.9948 H   0  0  0  0  0  0  0  0  0  0  0  0
   -0.1763  -16.4114   17.6235 H   0  0  0  0  0  0  0  0  0  0  0  0
  1  2  1  0
  2  3  2  0
  3  4  1  0
  4  5  2  0
  5  6  1  0
  6  7  2  0
  7  8  1  0
  8  9  1  0
  9 10  1  0
 10 11  1  0
 11 12  2  0
 11 13  1  0
 13 14  2  0
 14 15  1  0
 15 16  1  0
 16 17  2  0
 16 18  1  0
  7  2  1  0
 18 13  1  0
  1 19  1  0
  1 20  1  0
  1 21  1  0
  3 22  1  0
  4 23  1  0
  6 24  1  0
  8 25  1  0
  8 26  1  0
  9 27  1  0
  9 28  1  0
 10 29  1  0
 15 30  1  0
 18 31  1  0
 18 32  1  0
M  END
>  <Energy>  (443) 
79.762234663297207

>  <compound_id>  (443) 
17362

>  <target_id>  (443) 
1

>  <reference_id>  (443) 
49

>  <inspiration_ids>  (443) 
[49, 98]

>  <energy_score>  (443) 
12.62649905843412

>  <distance_score>  (443) 
16.823256605809775

>  <path>  (443) 
/opt/xchem-fragalysis-2/maxwin/BulkDock/SCRATCH/511014/C17362-P49/C17362-P49.minimised.mol

>  <scratch_subdir>  (443) 
/opt/xchem-fragalysis-2/maxwin/BulkDock/SCRATCH/511014/C17362-P49

>  <fragmenstein_runtime>  (443) 
17.751047611236572

>  <fragmenstein_outcome>  (443) 
too moved

>  <fragmenstein_mode>  (443) 
expansion

>  <fragmenstein_error>  (443) 


$$$$
C17362-P98
     RDKit          3D

 32 33  0  0  0  0  0  0  0  0999 V2000
   -0.6418  -16.4320   29.9306 C   0  0  0  0  0  0  0  0  0  0  0  0
   -0.0523  -17.5192   29.0633 C   0  0  0  0  0  0  0  0  0  0  0  0
   -0.7014  -18.7674   29.1653 C   0  0  0  0  0  0  0  0  0  0  0  0
   -0.2018  -19.8244   28.4455 C   0  0  0  0  0  0  0  0  0  0  0  0
    0.8971  -19.7272   27.6702 N   0  0  0  0  0  0  0  0  0  0  0  0
    1.5243  -18.5161   27.5719 C   0  0  0  0  0  0  0  0  0  0  0  0
    1.0821  -17.3387   28.1597 C   0  0  0  0  0  0  0  0  0  0  0  0
    1.8393  -15.8321   27.8931 C   0  0  0  0  0  0  0  0  0  0  0  0
    2.0635  -14.0361   26.7867 C   0  0  0  0  0  0  0  0  0  0  0  0
    1.2365  -12.8936   25.6378 N   0  0  0  0  0  0  0  0  0  0  0  0
    1.7239  -12.2699   23.9764 C   0  0  0  0  0  0  0  0  0  0  0  0
    2.7903  -12.5098   23.4545 O   0  0  0  0  0  0  0  0  0  0  0  0
    0.4393  -11.2225   22.6843 C   0  0  0  0  0  0  0  0  0  0  0  0
    0.9087  -10.6907   21.5741 N   0  0  0  0  0  0  0  0  0  0  0  0
    0.8533   -9.3353   21.1755 N   0  0  0  0  0  0  0  0  0  0  0  0
   -0.1889   -8.7415   21.7277 C   0  0  0  0  0  0  0  0  0  0  0  0
   -0.4921   -7.5693   21.7024 O   0  0  0  0  0  0  0  0  0  0  0  0
   -0.8643   -9.9660   22.2683 C   0  0  0  0  0  0  0  0  0  0  0  0
   -1.2218  -15.7342   29.3234 H   0  0  0  0  0  0  0  0  0  0  0  0
   -1.3263  -16.8457   30.6808 H   0  0  0  0  0  0  0  0  0  0  0  0
    0.1344  -15.9126   30.4987 H   0  0  0  0  0  0  0  0  0  0  0  0
   -1.5651  -18.9158   29.8056 H   0  0  0  0  0  0  0  0  0  0  0  0
   -0.6580  -20.8083   28.4881 H   0  0  0  0  0  0  0  0  0  0  0  0
    2.4031  -18.5309   26.9352 H   0  0  0  0  0  0  0  0  0  0  0  0
    1.2833  -15.6549   28.7944 H   0  0  0  0  0  0  0  0  0  0  0  0
    2.8894  -16.0689   28.1426 H   0  0  0  0  0  0  0  0  0  0  0  0
    2.7640  -13.5358   27.4356 H   0  0  0  0  0  0  0  0  0  0  0  0
    1.0051  -14.1068   26.9026 H   0  0  0  0  0  0  0  0  0  0  0  0
    0.3631  -12.5043   25.8857 H   0  0  0  0  0  0  0  0  0  0  0  0
    1.0285   -9.1667   20.1867 H   0  0  0  0  0  0  0  0  0  0  0  0
   -1.3635  -10.4269   21.3850 H   0  0  0  0  0  0  0  0  0  0  0  0
   -1.7405   -9.5327   22.7496 H   0  0  0  0  0  0  0  0  0  0  0  0
  1  2  1  0
  2  3  2  0
  3  4  1  0
  4  5  2  0
  5  6  1  0
  6  7  2  0
  7  8  1  0
  8  9  1  0
  9 10  1  0
 10 11  1  0
 11 12  2  0
 11 13  1  0
 13 14  2  0
 14 15  1  0
 15 16  1  0
 16 17  2  0
 16 18  1  0
  7  2  1  0
 18 13  1  0
  1 19  1  0
  1 20  1  0
  1 21  1  0
  3 22  1  0
  4 23  1  0
  6 24  1  0
  8 25  1  0
  8 26  1  0
  9 27  1  0
  9 28  1  0
 10 29  1  0
 15 30  1  0
 18 31  1  0
 18 32  1  0
M  END
>  <Energy>  (444) 
619.38502195392982

>  <compound_id>  (444) 
17362

>  <target_id>  (444) 
1

>  <reference_id>  (444) 
98

>  <inspiration_ids>  (444) 
[49, 98]

>  <energy_score>  (444) 
552.2492863490611

>  <distance_score>  (444) 
15.35357927439239

>  <path>  (444) 
/opt/xchem-fragalysis-2/maxwin/BulkDock/SCRATCH/511014/C17362-P98/C17362-P98.minimised.mol

>  <scratch_subdir>  (444) 
/opt/xchem-fragalysis-2/maxwin/BulkDock/SCRATCH/511014/C17362-P98

>  <fragmenstein_runtime>  (444) 
15.748736381530762

>  <fragmenstein_outcome>  (444) 
too moved

>  <fragmenstein_mode>  (444) 
expansion

>  <fragmenstein_error>  (444) 


$$$$
C17363-P49
     RDKit          3D

 41 43  0  0  0  0  0  0  0  0999 V2000
   -1.1646  -11.3567   16.5398 O   0  0  0  0  0  0  0  0  0  0  0  0
   -1.9115  -12.1983   17.0161 C   0  0  0  0  0  0  0  0  0  0  0  0
   -3.2117  -12.0015   17.7623 C   0  0  0  0  0  0  0  0  0  0  0  0
   -3.5090  -13.4188   18.2478 C   0  0  0  0  0  0  0  0  0  0  0  0
   -4.7987  -13.7285   19.0791 C   0  0  0  0  0  0  0  0  0  0  0  0
   -5.7084  -12.9875   18.8337 O   0  0  0  0  0  0  0  0  0  0  0  0
   -4.6776  -14.7822   20.0699 N   0  0  0  0  0  0  0  0  0  0  0  0
   -5.6056  -15.2139   21.1632 C   0  0  0  0  0  0  0  0  0  0  0  0
   -6.1400  -16.7440   21.3251 C   0  0  0  0  0  0  0  0  0  0  0  0
   -6.7522  -16.9652   22.7473 C   0  0  0  0  0  0  0  0  0  0  0  0
   -6.0402  -17.5416   23.8114 C   0  0  0  0  0  0  0  0  0  0  0  0
   -6.6822  -17.8433   25.0124 C   0  0  0  0  0  0  0  0  0  0  0  0
   -8.0087  -17.4912   25.1669 C   0  0  0  0  0  0  0  0  0  0  0  0
   -8.7328  -16.9037   24.1946 N   0  0  0  0  0  0  0  0  0  0  0  0
   -8.0943  -16.6737   23.0129 C   0  0  0  0  0  0  0  0  0  0  0  0
   -5.1545  -17.8188   20.9603 N   0  0  0  0  0  0  0  0  0  0  0  0
   -4.7707  -17.8132   19.5299 C   0  0  0  0  0  0  0  0  0  0  0  0
   -5.8477  -18.5776   18.7718 C   0  0  0  0  0  0  0  0  0  0  0  0
   -6.4981  -19.4654   19.8136 C   0  0  0  0  0  0  0  0  0  0  0  0
   -5.7159  -19.1902   21.0868 C   0  0  0  0  0  0  0  0  0  0  0  0
   -2.6107  -14.2789   17.8562 N   0  0  0  0  0  0  0  0  0  0  0  0
   -1.7095  -13.5760   17.0658 N   0  0  0  0  0  0  0  0  0  0  0  0
   -3.0818  -11.3255   18.6073 H   0  0  0  0  0  0  0  0  0  0  0  0
   -3.9933  -11.6601   17.0811 H   0  0  0  0  0  0  0  0  0  0  0  0
   -3.7200  -15.1535   20.0493 H   0  0  0  0  0  0  0  0  0  0  0  0
   -5.0764  -14.9475   22.0862 H   0  0  0  0  0  0  0  0  0  0  0  0
   -6.4821  -14.5572   21.1056 H   0  0  0  0  0  0  0  0  0  0  0  0
   -6.9784  -16.8234   20.6186 H   0  0  0  0  0  0  0  0  0  0  0  0
   -4.9986  -17.8207   23.6797 H   0  0  0  0  0  0  0  0  0  0  0  0
   -6.1616  -18.3590   25.8051 H   0  0  0  0  0  0  0  0  0  0  0  0
   -8.5300  -17.6970   26.0944 H   0  0  0  0  0  0  0  0  0  0  0  0
   -8.7311  -16.2374   22.2461 H   0  0  0  0  0  0  0  0  0  0  0  0
   -3.8172  -18.3507   19.4390 H   0  0  0  0  0  0  0  0  0  0  0  0
   -4.6023  -16.8443   19.0702 H   0  0  0  0  0  0  0  0  0  0  0  0
   -6.5898  -17.8925   18.3466 H   0  0  0  0  0  0  0  0  0  0  0  0
   -5.4188  -19.1619   17.9515 H   0  0  0  0  0  0  0  0  0  0  0  0
   -6.4550  -20.5226   19.5337 H   0  0  0  0  0  0  0  0  0  0  0  0
   -7.5522  -19.1909   19.9357 H   0  0  0  0  0  0  0  0  0  0  0  0
   -6.3253  -19.3818   21.9725 H   0  0  0  0  0  0  0  0  0  0  0  0
   -4.8725  -19.8908   21.1524 H   0  0  0  0  0  0  0  0  0  0  0  0
   -0.8711  -14.0311   16.7170 H   0  0  0  0  0  0  0  0  0  0  0  0
  1  2  2  0
  2  3  1  0
  3  4  1  0
  4  5  1  0
  5  6  2  0
  5  7  1  0
  7  8  1  0
  8  9  1  0
  9 10  1  0
 10 11  2  0
 11 12  1  0
 12 13  2  0
 13 14  1  0
 14 15  2  0
  9 16  1  0
 16 17  1  0
 17 18  1  0
 18 19  1  0
 19 20  1  0
  4 21  2  0
 21 22  1  0
 22  2  1  0
 15 10  1  0
 20 16  1  0
  3 23  1  0
  3 24  1  0
  7 25  1  0
  8 26  1  0
  8 27  1  0
  9 28  1  0
 11 29  1  0
 12 30  1  0
 13 31  1  0
 15 32  1  0
 17 33  1  0
 17 34  1  0
 18 35  1  0
 18 36  1  0
 19 37  1  0
 19 38  1  0
 20 39  1  0
 20 40  1  0
 22 41  1  0
M  END
>  <Energy>  (445) 
93.746328988379133

>  <compound_id>  (445) 
17363

>  <target_id>  (445) 
1

>  <reference_id>  (445) 
49

>  <inspiration_ids>  (445) 
[49, 98]

>  <energy_score>  (445) 
-18.110165909889872

>  <distance_score>  (445) 
16.53843995945037

>  <path>  (445) 
/opt/xchem-fragalysis-2/maxwin/BulkDock/SCRATCH/511014/C17363-P49/C17363-P49.minimised.mol

>  <scratch_subdir>  (445) 
/opt/xchem-fragalysis-2/maxwin/BulkDock/SCRATCH/511014/C17363-P49

>  <fragmenstein_runtime>  (445) 
37.504680156707764

>  <fragmenstein_outcome>  (445) 
too moved

>  <fragmenstein_mode>  (445) 
expansion

>  <fragmenstein_error>  (445) 


$$$$
C17363-P98
     RDKit          3D

 41 43  0  0  0  0  0  0  0  0999 V2000
    2.6718   -9.1123   28.7266 O   0  0  0  0  0  0  0  0  0  0  0  0
    1.4784   -9.2072   28.9874 C   0  0  0  0  0  0  0  0  0  0  0  0
    0.8536   -9.7465   30.2454 C   0  0  0  0  0  0  0  0  0  0  0  0
   -0.6240   -9.6648   29.9243 C   0  0  0  0  0  0  0  0  0  0  0  0
   -1.6867  -10.0118   31.0042 C   0  0  0  0  0  0  0  0  0  0  0  0
   -1.5272   -9.3857   32.0144 O   0  0  0  0  0  0  0  0  0  0  0  0
   -2.7041  -10.9817   30.6424 N   0  0  0  0  0  0  0  0  0  0  0  0
   -3.8141  -11.5800   31.4415 C   0  0  0  0  0  0  0  0  0  0  0  0
   -4.2447  -13.0951   31.1155 C   0  0  0  0  0  0  0  0  0  0  0  0
   -5.4251  -13.6344   31.9553 C   0  0  0  0  0  0  0  0  0  0  0  0
   -5.3333  -14.8270   32.6954 C   0  0  0  0  0  0  0  0  0  0  0  0
   -6.4293  -15.3015   33.4336 C   0  0  0  0  0  0  0  0  0  0  0  0
   -7.6062  -14.5781   33.4171 C   0  0  0  0  0  0  0  0  0  0  0  0
   -7.7464  -13.4370   32.7185 N   0  0  0  0  0  0  0  0  0  0  0  0
   -6.6625  -12.9962   32.0219 C   0  0  0  0  0  0  0  0  0  0  0  0
   -4.3609  -13.2812   29.6521 N   0  0  0  0  0  0  0  0  0  0  0  0
   -5.4336  -12.5892   28.9513 C   0  0  0  0  0  0  0  0  0  0  0  0
   -5.3165  -13.1537   27.5419 C   0  0  0  0  0  0  0  0  0  0  0  0
   -4.7297  -14.5501   27.7210 C   0  0  0  0  0  0  0  0  0  0  0  0
   -4.4251  -14.6692   29.2081 C   0  0  0  0  0  0  0  0  0  0  0  0
   -0.8518   -9.1480   28.7441 N   0  0  0  0  0  0  0  0  0  0  0  0
    0.3865   -8.8535   28.1932 N   0  0  0  0  0  0  0  0  0  0  0  0
    1.0945   -9.0998   31.0916 H   0  0  0  0  0  0  0  0  0  0  0  0
    1.1556  -10.7732   30.4257 H   0  0  0  0  0  0  0  0  0  0  0  0
   -2.4793  -11.3752   29.7315 H   0  0  0  0  0  0  0  0  0  0  0  0
   -4.6700  -10.9123   31.2925 H   0  0  0  0  0  0  0  0  0  0  0  0
   -3.5294  -11.5028   32.4971 H   0  0  0  0  0  0  0  0  0  0  0  0
   -3.3619  -13.6771   31.4179 H   0  0  0  0  0  0  0  0  0  0  0  0
   -4.4093  -15.3998   32.6902 H   0  0  0  0  0  0  0  0  0  0  0  0
   -6.3952  -16.2373   33.9740 H   0  0  0  0  0  0  0  0  0  0  0  0
   -8.4888  -14.9155   33.9522 H   0  0  0  0  0  0  0  0  0  0  0  0
   -6.8413  -12.0619   31.4955 H   0  0  0  0  0  0  0  0  0  0  0  0
   -5.3125  -11.5021   28.9508 H   0  0  0  0  0  0  0  0  0  0  0  0
   -6.4242  -12.8363   29.3441 H   0  0  0  0  0  0  0  0  0  0  0  0
   -6.2860  -13.1822   27.0345 H   0  0  0  0  0  0  0  0  0  0  0  0
   -4.6397  -12.5420   26.9340 H   0  0  0  0  0  0  0  0  0  0  0  0
   -3.8196  -14.6554   27.1201 H   0  0  0  0  0  0  0  0  0  0  0  0
   -5.4340  -15.3249   27.4000 H   0  0  0  0  0  0  0  0  0  0  0  0
   -3.4870  -15.2054   29.3811 H   0  0  0  0  0  0  0  0  0  0  0  0
   -5.2385  -15.2154   29.6936 H   0  0  0  0  0  0  0  0  0  0  0  0
    0.4143   -8.3010   27.3394 H   0  0  0  0  0  0  0  0  0  0  0  0
  1  2  2  0
  2  3  1  0
  3  4  1  0
  4  5  1  0
  5  6  2  0
  5  7  1  0
  7  8  1  0
  8  9  1  0
  9 10  1  0
 10 11  2  0
 11 12  1  0
 12 13  2  0
 13 14  1  0
 14 15  2  0
  9 16  1  0
 16 17  1  0
 17 18  1  0
 18 19  1  0
 19 20  1  0
  4 21  2  0
 21 22  1  0
 22  2  1  0
 15 10  1  0
 20 16  1  0
  3 23  1  0
  3 24  1  0
  7 25  1  0
  8 26  1  0
  8 27  1  0
  9 28  1  0
 11 29  1  0
 12 30  1  0
 13 31  1  0
 15 32  1  0
 17 33  1  0
 17 34  1  0
 18 35  1  0
 18 36  1  0
 19 37  1  0
 19 38  1  0
 20 39  1  0
 20 40  1  0
 22 41  1  0
M  END
>  <Energy>  (446) 
86.056251995452129

>  <compound_id>  (446) 
17363

>  <target_id>  (446) 
1

>  <reference_id>  (446) 
98

>  <inspiration_ids>  (446) 
[49, 98]

>  <energy_score>  (446) 
-25.80024290281358

>  <distance_score>  (446) 
16.811041083286266

>  <path>  (446) 
/opt/xchem-fragalysis-2/maxwin/BulkDock/SCRATCH/511014/C17363-P98/C17363-P98.minimised.mol

>  <scratch_subdir>  (446) 
/opt/xchem-fragalysis-2/maxwin/BulkDock/SCRATCH/511014/C17363-P98

>  <fragmenstein_runtime>  (446) 
38.26965379714966

>  <fragmenstein_outcome>  (446) 
too moved

>  <fragmenstein_mode>  (446) 
expansion

>  <fragmenstein_error>  (446) 


$$$$
C17373-P49
     RDKit          3D

 32 34  0  0  0  0  0  0  0  0999 V2000
    5.0831   -3.1891   22.4608 O   0  0  0  0  0  0  0  0  0  0  0  0
    4.2209   -3.0039   23.3015 C   0  0  0  0  0  0  0  0  0  0  0  0
    2.8225   -2.4620   23.1318 C   0  0  0  0  0  0  0  0  0  0  0  0
    2.2652   -2.6361   24.5392 C   0  0  0  0  0  0  0  0  0  0  0  0
    0.7777   -2.3292   24.8419 C   0  0  0  0  0  0  0  0  0  0  0  0
    0.3274   -1.4716   24.1387 O   0  0  0  0  0  0  0  0  0  0  0  0
    0.1364   -3.1715   25.8405 N   0  0  0  0  0  0  0  0  0  0  0  0
   -1.2864   -3.3010   26.2298 C   0  0  0  0  0  0  0  0  0  0  0  0
   -1.6688   -3.9135   27.5889 C   0  0  0  0  0  0  0  0  0  0  0  0
   -2.8311   -4.5219   27.8604 N   0  0  0  0  0  0  0  0  0  0  0  0
   -2.9697   -4.8222   29.2345 C   0  0  0  0  0  0  0  0  0  0  0  0
   -4.1905   -5.4579   29.8338 C   0  0  0  0  0  0  0  0  0  0  0  0
   -5.4175   -5.4678   29.1533 C   0  0  0  0  0  0  0  0  0  0  0  0
   -6.5466   -6.0522   29.7379 C   0  0  0  0  0  0  0  0  0  0  0  0
   -6.5532   -6.5851   30.9714 N   0  0  0  0  0  0  0  0  0  0  0  0
   -5.3883   -6.5114   31.6427 C   0  0  0  0  0  0  0  0  0  0  0  0
   -4.1957   -6.0189   31.1150 C   0  0  0  0  0  0  0  0  0  0  0  0
   -1.8562   -4.4519   29.9667 C   0  0  0  0  0  0  0  0  0  0  0  0
   -0.6668   -3.7017   28.9713 S   0  0  0  0  0  0  0  0  0  0  0  0
    3.1439   -3.1012   25.3871 N   0  0  0  0  0  0  0  0  0  0  0  0
    4.3106   -3.2883   24.6605 N   0  0  0  0  0  0  0  0  0  0  0  0
    2.2570   -3.0624   22.4180 H   0  0  0  0  0  0  0  0  0  0  0  0
    2.8474   -1.4060   22.8579 H   0  0  0  0  0  0  0  0  0  0  0  0
    0.8399   -3.7312   26.3020 H   0  0  0  0  0  0  0  0  0  0  0  0
   -1.7509   -3.9086   25.4444 H   0  0  0  0  0  0  0  0  0  0  0  0
   -1.7281   -2.3005   26.1594 H   0  0  0  0  0  0  0  0  0  0  0  0
   -5.5017   -5.0296   28.1611 H   0  0  0  0  0  0  0  0  0  0  0  0
   -7.4926   -6.0915   29.2034 H   0  0  0  0  0  0  0  0  0  0  0  0
   -5.4211   -6.8650   32.6700 H   0  0  0  0  0  0  0  0  0  0  0  0
   -3.3069   -6.0411   31.7355 H   0  0  0  0  0  0  0  0  0  0  0  0
   -1.6696   -4.5494   31.0254 H   0  0  0  0  0  0  0  0  0  0  0  0
    5.1615   -3.6317   25.0939 H   0  0  0  0  0  0  0  0  0  0  0  0
  1  2  2  0
  2  3  1  0
  3  4  1  0
  4  5  1  0
  5  6  2  0
  5  7  1  0
  7  8  1  0
  8  9  1  0
  9 10  2  0
 10 11  1  0
 11 12  1  0
 12 13  2  0
 13 14  1  0
 14 15  2  0
 15 16  1  0
 16 17  2  0
 11 18  2  0
 18 19  1  0
  4 20  2  0
 20 21  1  0
 21  2  1  0
 19  9  1  0
 17 12  1  0
  3 22  1  0
  3 23  1  0
  7 24  1  0
  8 25  1  0
  8 26  1  0
 13 27  1  0
 14 28  1  0
 16 29  1  0
 17 30  1  0
 18 31  1  0
 21 32  1  0
M  END
>  <Energy>  (447) 
55.579999643523152

>  <compound_id>  (447) 
17373

>  <target_id>  (447) 
1

>  <reference_id>  (447) 
49

>  <inspiration_ids>  (447) 
[49, 98]

>  <energy_score>  (447) 
-35.068941568064986

>  <distance_score>  (447) 
15.8402625165865

>  <path>  (447) 
/opt/xchem-fragalysis-2/maxwin/BulkDock/SCRATCH/511014/C17373-P49/C17373-P49.minimised.mol

>  <scratch_subdir>  (447) 
/opt/xchem-fragalysis-2/maxwin/BulkDock/SCRATCH/511014/C17373-P49

>  <fragmenstein_runtime>  (447) 
20.55106496810913

>  <fragmenstein_outcome>  (447) 
too moved

>  <fragmenstein_mode>  (447) 
expansion

>  <fragmenstein_error>  (447) 


$$$$
C17373-P98
     RDKit          3D

 32 34  0  0  0  0  0  0  0  0999 V2000
    1.3119   -8.2584   19.1541 O   0  0  0  0  0  0  0  0  0  0  0  0
    0.3005   -8.9451   19.1209 C   0  0  0  0  0  0  0  0  0  0  0  0
   -1.1507   -8.5529   19.3320 C   0  0  0  0  0  0  0  0  0  0  0  0
   -1.8588   -9.8948   19.1595 C   0  0  0  0  0  0  0  0  0  0  0  0
   -3.4166  -10.0249   19.0945 C   0  0  0  0  0  0  0  0  0  0  0  0
   -3.9596   -9.0232   18.7235 O   0  0  0  0  0  0  0  0  0  0  0  0
   -3.9573  -11.3426   19.3915 N   0  0  0  0  0  0  0  0  0  0  0  0
   -5.3356  -11.8918   19.2333 C   0  0  0  0  0  0  0  0  0  0  0  0
   -6.2972  -12.1491   20.4223 C   0  0  0  0  0  0  0  0  0  0  0  0
   -6.6375  -13.3395   20.9583 N   0  0  0  0  0  0  0  0  0  0  0  0
   -7.5851  -13.1929   22.0126 C   0  0  0  0  0  0  0  0  0  0  0  0
   -8.1173  -14.3043   22.8763 C   0  0  0  0  0  0  0  0  0  0  0  0
   -8.2606  -15.6075   22.3928 C   0  0  0  0  0  0  0  0  0  0  0  0
   -8.8524  -16.5887   23.2001 C   0  0  0  0  0  0  0  0  0  0  0  0
   -9.2953  -16.3823   24.4609 N   0  0  0  0  0  0  0  0  0  0  0  0
   -9.1297  -15.1297   24.9332 C   0  0  0  0  0  0  0  0  0  0  0  0
   -8.5587  -14.0860   24.1966 C   0  0  0  0  0  0  0  0  0  0  0  0
   -8.0318  -11.8901   22.1383 C   0  0  0  0  0  0  0  0  0  0  0  0
   -7.2621  -10.8430   21.0122 S   0  0  0  0  0  0  0  0  0  0  0  0
   -1.0309  -10.8716   18.9071 N   0  0  0  0  0  0  0  0  0  0  0  0
    0.2354  -10.3074   18.8642 N   0  0  0  0  0  0  0  0  0  0  0  0
   -1.3103   -8.1697   20.3409 H   0  0  0  0  0  0  0  0  0  0  0  0
   -1.4699   -7.8491   18.5614 H   0  0  0  0  0  0  0  0  0  0  0  0
   -3.1917  -11.9755   19.6016 H   0  0  0  0  0  0  0  0  0  0  0  0
   -5.8452  -11.2325   18.5199 H   0  0  0  0  0  0  0  0  0  0  0  0
   -5.1979  -12.8545   18.7262 H   0  0  0  0  0  0  0  0  0  0  0  0
   -7.9490  -15.8563   21.3822 H   0  0  0  0  0  0  0  0  0  0  0  0
   -8.9855  -17.6000   22.8232 H   0  0  0  0  0  0  0  0  0  0  0  0
   -9.4654  -14.9653   25.9545 H   0  0  0  0  0  0  0  0  0  0  0  0
   -8.4586  -13.1136   24.6688 H   0  0  0  0  0  0  0  0  0  0  0  0
   -8.7774  -11.4913   22.8093 H   0  0  0  0  0  0  0  0  0  0  0  0
    1.0629  -10.8911   18.7816 H   0  0  0  0  0  0  0  0  0  0  0  0
  1  2  2  0
  2  3  1  0
  3  4  1  0
  4  5  1  0
  5  6  2  0
  5  7  1  0
  7  8  1  0
  8  9  1  0
  9 10  2  0
 10 11  1  0
 11 12  1  0
 12 13  2  0
 13 14  1  0
 14 15  2  0
 15 16  1  0
 16 17  2  0
 11 18  2  0
 18 19  1  0
  4 20  2  0
 20 21  1  0
 21  2  1  0
 19  9  1  0
 17 12  1  0
  3 22  1  0
  3 23  1  0
  7 24  1  0
  8 25  1  0
  8 26  1  0
 13 27  1  0
 14 28  1  0
 16 29  1  0
 17 30  1  0
 18 31  1  0
 21 32  1  0
M  END
>  <Energy>  (448) 
60.885718066762365

>  <compound_id>  (448) 
17373

>  <target_id>  (448) 
1

>  <reference_id>  (448) 
98

>  <inspiration_ids>  (448) 
[49, 98]

>  <energy_score>  (448) 
-29.763223144828714

>  <distance_score>  (448) 
14.791596102464077

>  <path>  (448) 
/opt/xchem-fragalysis-2/maxwin/BulkDock/SCRATCH/511014/C17373-P98/C17373-P98.minimised.mol

>  <scratch_subdir>  (448) 
/opt/xchem-fragalysis-2/maxwin/BulkDock/SCRATCH/511014/C17373-P98

>  <fragmenstein_runtime>  (448) 
32.94868540763855

>  <fragmenstein_outcome>  (448) 
too moved

>  <fragmenstein_mode>  (448) 
expansion

>  <fragmenstein_error>  (448) 


$$$$
C17375-P49
     RDKit          3D

 36 38  0  0  0  0  0  0  0  0999 V2000
    8.2191  -19.8088   29.0155 C   0  0  0  0  0  0  0  0  0  0  0  0
    8.3842  -18.5453   28.2257 N   0  0  0  0  0  0  0  0  0  0  0  0
    9.0421  -18.3034   26.9415 C   0  0  0  0  0  0  0  0  0  0  0  0
    9.5371  -19.0786   26.1572 O   0  0  0  0  0  0  0  0  0  0  0  0
    9.2954  -16.8424   26.4759 C   0  0  0  0  0  0  0  0  0  0  0  0
    8.8734  -15.7338   27.0050 N   0  0  0  0  0  0  0  0  0  0  0  0
    9.4675  -14.6872   26.3049 N   0  0  0  0  0  0  0  0  0  0  0  0
   10.3490  -15.0657   25.2986 C   0  0  0  0  0  0  0  0  0  0  0  0
   10.9838  -14.3428   24.5481 O   0  0  0  0  0  0  0  0  0  0  0  0
   10.2933  -16.5760   25.3366 C   0  0  0  0  0  0  0  0  0  0  0  0
    6.6021  -18.7849   27.9968 C   0  0  0  0  0  0  0  0  0  0  0  0
    5.6096  -18.3728   29.1784 C   0  0  0  0  0  0  0  0  0  0  0  0
    4.5411  -19.3501   28.5281 C   0  0  0  0  0  0  0  0  0  0  0  0
    3.2254  -19.9968   29.3350 C   0  0  0  0  0  0  0  0  0  0  0  0
    2.6659  -19.4601   30.5154 C   0  0  0  0  0  0  0  0  0  0  0  0
    1.4247  -19.8891   31.0305 C   0  0  0  0  0  0  0  0  0  0  0  0
    0.7285  -20.8718   30.3544 C   0  0  0  0  0  0  0  0  0  0  0  0
    1.2007  -21.4469   29.2324 N   0  0  0  0  0  0  0  0  0  0  0  0
    2.4217  -21.0161   28.7807 C   0  0  0  0  0  0  0  0  0  0  0  0
    5.7867  -20.1753   28.0482 C   0  0  0  0  0  0  0  0  0  0  0  0
    7.6097  -19.7325   29.9156 H   0  0  0  0  0  0  0  0  0  0  0  0
    9.2298  -19.9679   29.4198 H   0  0  0  0  0  0  0  0  0  0  0  0
    8.0993  -20.6829   28.3674 H   0  0  0  0  0  0  0  0  0  0  0  0
    9.2384  -13.7251   26.5407 H   0  0  0  0  0  0  0  0  0  0  0  0
   11.2739  -16.9814   25.5948 H   0  0  0  0  0  0  0  0  0  0  0  0
    9.9176  -16.9815   24.3962 H   0  0  0  0  0  0  0  0  0  0  0  0
    6.3958  -18.2411   27.0635 H   0  0  0  0  0  0  0  0  0  0  0  0
    5.3181  -17.3208   29.2005 H   0  0  0  0  0  0  0  0  0  0  0  0
    5.8989  -18.6566   30.1949 H   0  0  0  0  0  0  0  0  0  0  0  0
    4.1164  -18.8663   27.6433 H   0  0  0  0  0  0  0  0  0  0  0  0
    3.1906  -18.6549   31.0277 H   0  0  0  0  0  0  0  0  0  0  0  0
    1.0196  -19.4469   31.9346 H   0  0  0  0  0  0  0  0  0  0  0  0
   -0.2330  -21.2325   30.7048 H   0  0  0  0  0  0  0  0  0  0  0  0
    2.7427  -21.5044   27.8610 H   0  0  0  0  0  0  0  0  0  0  0  0
    6.0557  -20.9379   28.7868 H   0  0  0  0  0  0  0  0  0  0  0  0
    5.6685  -20.6648   27.0764 H   0  0  0  0  0  0  0  0  0  0  0  0
  1  2  1  0
  2  3  1  0
  3  4  2  0
  3  5  1  0
  5  6  2  0
  6  7  1  0
  7  8  1  0
  8  9  2  0
  8 10  1  0
  2 11  1  0
 11 12  1  0
 12 13  1  0
 13 14  1  0
 14 15  2  0
 15 16  1  0
 16 17  2  0
 17 18  1  0
 18 19  2  0
 13 20  1  0
 10  5  1  0
 20 11  1  0
 19 14  1  0
  1 21  1  0
  1 22  1  0
  1 23  1  0
  7 24  1  0
 10 25  1  0
 10 26  1  0
 11 27  1  0
 12 28  1  0
 12 29  1  0
 13 30  1  0
 15 31  1  0
 16 32  1  0
 17 33  1  0
 19 34  1  0
 20 35  1  0
 20 36  1  0
M  END
>  <Energy>  (449) 
160.4277787987715

>  <compound_id>  (449) 
17375

>  <target_id>  (449) 
1

>  <reference_id>  (449) 
49

>  <inspiration_ids>  (449) 
[49, 98]

>  <energy_score>  (449) 
61.646310104515635

>  <distance_score>  (449) 
16.05297240707958

>  <path>  (449) 
/opt/xchem-fragalysis-2/maxwin/BulkDock/SCRATCH/511014/C17375-P49/C17375-P49.minimised.mol

>  <scratch_subdir>  (449) 
/opt/xchem-fragalysis-2/maxwin/BulkDock/SCRATCH/511014/C17375-P49

>  <fragmenstein_runtime>  (449) 
29.951432466506958

>  <fragmenstein_outcome>  (449) 
too moved

>  <fragmenstein_mode>  (449) 
expansion

>  <fragmenstein_error>  (449) 


$$$$
C17375-P98
     RDKit          3D

 36 38  0  0  0  0  0  0  0  0999 V2000
   -2.5083  -13.1972   19.4597 C   0  0  0  0  0  0  0  0  0  0  0  0
   -1.9479  -12.4538   20.3125 N   0  0  0  0  0  0  0  0  0  0  0  0
   -2.3817  -11.0369   20.8373 C   0  0  0  0  0  0  0  0  0  0  0  0
   -3.3867  -10.4216   20.6019 O   0  0  0  0  0  0  0  0  0  0  0  0
   -1.4327  -10.1616   21.6379 C   0  0  0  0  0  0  0  0  0  0  0  0
   -0.1605  -10.3301   21.7190 N   0  0  0  0  0  0  0  0  0  0  0  0
    0.4561   -9.1105   21.4942 N   0  0  0  0  0  0  0  0  0  0  0  0
   -0.3443   -8.0261   21.3646 C   0  0  0  0  0  0  0  0  0  0  0  0
    0.0359   -6.8797   21.1980 O   0  0  0  0  0  0  0  0  0  0  0  0
   -1.7188   -8.6152   21.5263 C   0  0  0  0  0  0  0  0  0  0  0  0
   -2.2809  -14.3906   21.1206 C   0  0  0  0  0  0  0  0  0  0  0  0
   -3.2658  -15.1156   22.9851 C   0  0  0  0  0  0  0  0  0  0  0  0
   -4.3542  -16.2413   21.6499 C   0  0  0  0  0  0  0  0  0  0  0  0
   -5.7954  -17.2767   21.9691 C   0  0  0  0  0  0  0  0  0  0  0  0
   -5.9501  -18.6251   21.6026 C   0  0  0  0  0  0  0  0  0  0  0  0
   -7.0150  -19.3996   22.0996 C   0  0  0  0  0  0  0  0  0  0  0  0
   -7.9638  -18.8066   22.9162 C   0  0  0  0  0  0  0  0  0  0  0  0
   -7.9342  -17.5059   23.2495 N   0  0  0  0  0  0  0  0  0  0  0  0
   -6.8722  -16.7941   22.7687 C   0  0  0  0  0  0  0  0  0  0  0  0
   -3.2237  -16.0651   20.4667 C   0  0  0  0  0  0  0  0  0  0  0  0
   -2.4586  -12.3788   18.6684 H   0  0  0  0  0  0  0  0  0  0  0  0
   -2.0281  -13.6897   18.5837 H   0  0  0  0  0  0  0  0  0  0  0  0
   -3.4503  -12.7012   19.7741 H   0  0  0  0  0  0  0  0  0  0  0  0
    1.4485   -9.0406   21.6445 H   0  0  0  0  0  0  0  0  0  0  0  0
   -2.3080   -8.3599   20.6437 H   0  0  0  0  0  0  0  0  0  0  0  0
   -2.1797   -8.2616   22.4391 H   0  0  0  0  0  0  0  0  0  0  0  0
   -1.8189  -14.9594   20.2797 H   0  0  0  0  0  0  0  0  0  0  0  0
   -2.7061  -15.4094   23.9094 H   0  0  0  0  0  0  0  0  0  0  0  0
   -4.1658  -14.7362   23.5037 H   0  0  0  0  0  0  0  0  0  0  0  0
   -5.1334  -15.6862   21.0876 H   0  0  0  0  0  0  0  0  0  0  0  0
   -5.2042  -19.1000   20.9702 H   0  0  0  0  0  0  0  0  0  0  0  0
   -7.0940  -20.4505   21.8417 H   0  0  0  0  0  0  0  0  0  0  0  0
   -8.8001  -19.3752   23.3059 H   0  0  0  0  0  0  0  0  0  0  0  0
   -6.8603  -15.7573   23.1004 H   0  0  0  0  0  0  0  0  0  0  0  0
   -3.6666  -16.2456   19.4844 H   0  0  0  0  0  0  0  0  0  0  0  0
   -2.5247  -16.9289   20.3890 H   0  0  0  0  0  0  0  0  0  0  0  0
  1  2  1  0
  2  3  1  0
  3  4  2  0
  3  5  1  0
  5  6  2  0
  6  7  1  0
  7  8  1  0
  8  9  2  0
  8 10  1  0
  2 11  1  0
 11 12  1  0
 12 13  1  0
 13 14  1  0
 14 15  2  0
 15 16  1  0
 16 17  2  0
 17 18  1  0
 18 19  2  0
 13 20  1  0
 10  5  1  0
 20 11  1  0
 19 14  1  0
  1 21  1  0
  1 22  1  0
  1 23  1  0
  7 24  1  0
 10 25  1  0
 10 26  1  0
 11 27  1  0
 12 28  1  0
 12 29  1  0
 13 30  1  0
 15 31  1  0
 16 32  1  0
 17 33  1  0
 19 34  1  0
 20 35  1  0
 20 36  1  0
M  END
>  <Energy>  (450) 
688.97673158248415

>  <compound_id>  (450) 
17375

>  <target_id>  (450) 
1

>  <reference_id>  (450) 
98

>  <inspiration_ids>  (450) 
[49, 98]

>  <energy_score>  (450) 
590.1952628882274

>  <distance_score>  (450) 
15.052527834391025

>  <path>  (450) 
/opt/xchem-fragalysis-2/maxwin/BulkDock/SCRATCH/511014/C17375-P98/C17375-P98.minimised.mol

>  <scratch_subdir>  (450) 
/opt/xchem-fragalysis-2/maxwin/BulkDock/SCRATCH/511014/C17375-P98

>  <fragmenstein_runtime>  (450) 
30.626841068267822

>  <fragmenstein_outcome>  (450) 
too moved

>  <fragmenstein_mode>  (450) 
expansion

>  <fragmenstein_error>  (450) 


$$$$
C17376-P49
     RDKit          3D

 31 33  0  0  0  0  0  0  0  0999 V2000
    6.0122   -7.6566   17.2808 O   0  0  0  0  0  0  0  0  0  0  0  0
    5.4533   -8.6392   17.7237 C   0  0  0  0  0  0  0  0  0  0  0  0
    5.0604   -8.8615   19.1456 C   0  0  0  0  0  0  0  0  0  0  0  0
    4.6945  -10.3053   19.0879 C   0  0  0  0  0  0  0  0  0  0  0  0
    4.5309  -11.0230   20.3880 C   0  0  0  0  0  0  0  0  0  0  0  0
    5.5687  -11.2288   20.9436 O   0  0  0  0  0  0  0  0  0  0  0  0
    3.1907  -11.2604   20.8020 N   0  0  0  0  0  0  0  0  0  0  0  0
    2.6649  -11.9099   21.9806 C   0  0  0  0  0  0  0  0  0  0  0  0
    1.0579  -11.6512   22.5291 C   0  0  0  0  0  0  0  0  0  0  0  0
    0.0530  -12.6557   22.1386 N   0  0  0  0  0  0  0  0  0  0  0  0
   -1.2300  -13.1568   22.9608 C   0  0  0  0  0  0  0  0  0  0  0  0
   -2.4629  -13.4757   24.0748 C   0  0  0  0  0  0  0  0  0  0  0  0
   -3.0016  -14.6728   23.9503 C   0  0  0  0  0  0  0  0  0  0  0  0
   -2.6473  -15.6688   25.0013 C   0  0  0  0  0  0  0  0  0  0  0  0
   -2.5160  -15.3909   26.2845 N   0  0  0  0  0  0  0  0  0  0  0  0
   -2.4924  -14.1089   26.5078 C   0  0  0  0  0  0  0  0  0  0  0  0
   -2.3263  -13.2681   25.5097 C   0  0  0  0  0  0  0  0  0  0  0  0
   -1.2948  -12.2031   23.7942 N   0  0  0  0  0  0  0  0  0  0  0  0
    0.5243  -11.7174   24.0644 O   0  0  0  0  0  0  0  0  0  0  0  0
    4.6940  -10.8223   17.8971 N   0  0  0  0  0  0  0  0  0  0  0  0
    5.1015   -9.8025   17.0635 N   0  0  0  0  0  0  0  0  0  0  0  0
    5.9021   -8.7236   19.8245 H   0  0  0  0  0  0  0  0  0  0  0  0
    4.2000   -8.2501   19.4222 H   0  0  0  0  0  0  0  0  0  0  0  0
    2.5611  -11.0373   20.0326 H   0  0  0  0  0  0  0  0  0  0  0  0
    3.4144  -11.9208   22.7723 H   0  0  0  0  0  0  0  0  0  0  0  0
    2.6981  -12.9467   21.6304 H   0  0  0  0  0  0  0  0  0  0  0  0
   -3.4004  -14.6741   22.9647 H   0  0  0  0  0  0  0  0  0  0  0  0
   -2.4130  -16.7097   24.8530 H   0  0  0  0  0  0  0  0  0  0  0  0
   -2.6039  -13.4703   27.3913 H   0  0  0  0  0  0  0  0  0  0  0  0
   -1.5003  -12.8290   26.0493 H   0  0  0  0  0  0  0  0  0  0  0  0
    5.3085   -9.9844   16.0866 H   0  0  0  0  0  0  0  0  0  0  0  0
  1  2  2  0
  2  3  1  0
  3  4  1  0
  4  5  1  0
  5  6  2  0
  5  7  1  0
  7  8  1  0
  8  9  1  0
  9 10  2  0
 10 11  1  0
 11 12  1  0
 12 13  2  0
 13 14  1  0
 14 15  2  0
 15 16  1  0
 16 17  2  0
 11 18  2  0
 18 19  1  0
  4 20  2  0
 20 21  1  0
 21  2  1  0
 19  9  1  0
 17 12  1  0
  3 22  1  0
  3 23  1  0
  7 24  1  0
  8 25  1  0
  8 26  1  0
 13 27  1  0
 14 28  1  0
 16 29  1  0
 17 30  1  0
 21 31  1  0
M  END
>  <Energy>  (451) 
475.04585044528301

>  <compound_id>  (451) 
17376

>  <target_id>  (451) 
1

>  <reference_id>  (451) 
49

>  <inspiration_ids>  (451) 
[49, 98]

>  <energy_score>  (451) 
391.9933874293512

>  <distance_score>  (451) 
12.911603190877452

>  <path>  (451) 
/opt/xchem-fragalysis-2/maxwin/BulkDock/SCRATCH/511014/C17376-P49/C17376-P49.minimised.mol

>  <scratch_subdir>  (451) 
/opt/xchem-fragalysis-2/maxwin/BulkDock/SCRATCH/511014/C17376-P49

>  <fragmenstein_runtime>  (451) 
14.466168403625488

>  <fragmenstein_outcome>  (451) 
too moved

>  <fragmenstein_mode>  (451) 
expansion

>  <fragmenstein_error>  (451) 


$$$$
C17376-P98
     RDKit          3D

 31 33  0  0  0  0  0  0  0  0999 V2000
    7.6643  -11.7361   21.5219 O   0  0  0  0  0  0  0  0  0  0  0  0
    6.7415  -12.3038   22.0829 C   0  0  0  0  0  0  0  0  0  0  0  0
    5.2722  -12.1422   21.8405 C   0  0  0  0  0  0  0  0  0  0  0  0
    4.6701  -12.9550   22.9818 C   0  0  0  0  0  0  0  0  0  0  0  0
    3.1666  -12.7415   23.4039 C   0  0  0  0  0  0  0  0  0  0  0  0
    2.6420  -11.9125   22.7744 O   0  0  0  0  0  0  0  0  0  0  0  0
    2.7217  -13.4606   24.4719 N   0  0  0  0  0  0  0  0  0  0  0  0
    1.0153  -13.5128   25.3520 C   0  0  0  0  0  0  0  0  0  0  0  0
   -0.7029  -14.2161   24.5011 C   0  0  0  0  0  0  0  0  0  0  0  0
   -1.4503  -15.3231   24.1618 N   0  0  0  0  0  0  0  0  0  0  0  0
   -2.5817  -16.0555   25.1426 C   0  0  0  0  0  0  0  0  0  0  0  0
   -2.1876  -17.7958   25.9689 C   0  0  0  0  0  0  0  0  0  0  0  0
   -1.2162  -17.9219   26.9478 C   0  0  0  0  0  0  0  0  0  0  0  0
   -0.3483  -19.0062   27.3408 C   0  0  0  0  0  0  0  0  0  0  0  0
   -0.5277  -20.2652   26.9738 N   0  0  0  0  0  0  0  0  0  0  0  0
   -1.6341  -20.4079   26.2767 C   0  0  0  0  0  0  0  0  0  0  0  0
   -2.3834  -19.2950   25.8055 C   0  0  0  0  0  0  0  0  0  0  0  0
   -2.4692  -14.8849   25.9115 N   0  0  0  0  0  0  0  0  0  0  0  0
   -1.8095  -13.8050   25.3615 O   0  0  0  0  0  0  0  0  0  0  0  0
    5.5772  -13.5876   23.6734 N   0  0  0  0  0  0  0  0  0  0  0  0
    6.8022  -13.2434   23.1058 N   0  0  0  0  0  0  0  0  0  0  0  0
    5.0149  -11.0858   21.9271 H   0  0  0  0  0  0  0  0  0  0  0  0
    5.0057  -12.5856   20.8802 H   0  0  0  0  0  0  0  0  0  0  0  0
    3.4858  -14.0385   24.8203 H   0  0  0  0  0  0  0  0  0  0  0  0
    0.9551  -12.5302   25.8746 H   0  0  0  0  0  0  0  0  0  0  0  0
    1.1619  -13.9989   26.3236 H   0  0  0  0  0  0  0  0  0  0  0  0
   -1.2261  -17.0582   27.5639 H   0  0  0  0  0  0  0  0  0  0  0  0
    0.4364  -18.8415   28.0748 H   0  0  0  0  0  0  0  0  0  0  0  0
   -1.9447  -21.4260   26.0610 H   0  0  0  0  0  0  0  0  0  0  0  0
   -3.2615  -19.7869   25.3540 H   0  0  0  0  0  0  0  0  0  0  0  0
    7.6706  -13.5550   23.5273 H   0  0  0  0  0  0  0  0  0  0  0  0
  1  2  2  0
  2  3  1  0
  3  4  1  0
  4  5  1  0
  5  6  2  0
  5  7  1  0
  7  8  1  0
  8  9  1  0
  9 10  2  0
 10 11  1  0
 11 12  1  0
 12 13  2  0
 13 14  1  0
 14 15  2  0
 15 16  1  0
 16 17  2  0
 11 18  2  0
 18 19  1  0
  4 20  2  0
 20 21  1  0
 21  2  1  0
 19  9  1  0
 17 12  1  0
  3 22  1  0
  3 23  1  0
  7 24  1  0
  8 25  1  0
  8 26  1  0
 13 27  1  0
 14 28  1  0
 16 29  1  0
 17 30  1  0
 21 31  1  0
M  END
>  <Energy>  (452) 
459.69571412951501

>  <compound_id>  (452) 
17376

>  <target_id>  (452) 
1

>  <reference_id>  (452) 
98

>  <inspiration_ids>  (452) 
[49, 98]

>  <energy_score>  (452) 
376.64325111358517

>  <distance_score>  (452) 
13.692127195283392

>  <path>  (452) 
/opt/xchem-fragalysis-2/maxwin/BulkDock/SCRATCH/511014/C17376-P98/C17376-P98.minimised.mol

>  <scratch_subdir>  (452) 
/opt/xchem-fragalysis-2/maxwin/BulkDock/SCRATCH/511014/C17376-P98

>  <fragmenstein_runtime>  (452) 
27.86755347251892

>  <fragmenstein_outcome>  (452) 
too moved

>  <fragmenstein_mode>  (452) 
expansion

>  <fragmenstein_error>  (452) 


$$$$
C17379-P49
     RDKit          3D

 35 36  0  0  0  0  0  0  0  0999 V2000
   -2.0433  -13.0332   25.9283 C   0  0  0  0  0  0  0  0  0  0  0  0
   -1.9357  -13.1381   24.4944 C   0  0  0  0  0  0  0  0  0  0  0  0
   -2.8091  -12.1703   24.0569 C   0  0  0  0  0  0  0  0  0  0  0  0
   -0.2918  -12.7990   23.1432 C   0  0  0  0  0  0  0  0  0  0  0  0
    1.0444  -11.5858   22.3469 N   0  0  0  0  0  0  0  0  0  0  0  0
    2.5888  -11.8450   21.8928 C   0  0  0  0  0  0  0  0  0  0  0  0
    3.2384  -12.8708   21.8707 O   0  0  0  0  0  0  0  0  0  0  0  0
    3.3305  -10.6193   21.2918 C   0  0  0  0  0  0  0  0  0  0  0  0
    2.7713   -9.5160   20.8737 N   0  0  0  0  0  0  0  0  0  0  0  0
    3.8070   -8.7160   20.4175 N   0  0  0  0  0  0  0  0  0  0  0  0
    5.0772   -9.2727   20.5190 C   0  0  0  0  0  0  0  0  0  0  0  0
    6.1346   -8.7520   20.2014 O   0  0  0  0  0  0  0  0  0  0  0  0
    4.8374  -10.6400   21.1055 C   0  0  0  0  0  0  0  0  0  0  0  0
   -2.0841  -14.4064   26.1496 C   0  0  0  0  0  0  0  0  0  0  0  0
   -3.2829  -14.8958   26.8065 C   0  0  0  0  0  0  0  0  0  0  0  0
   -3.8479  -14.3836   28.3070 C   0  0  0  0  0  0  0  0  0  0  0  0
   -2.9611  -13.6787   29.2486 C   0  0  0  0  0  0  0  0  0  0  0  0
   -2.9512  -13.8724   30.6051 F   0  0  0  0  0  0  0  0  0  0  0  0
   -1.6680  -13.2530   28.7438 C   0  0  0  0  0  0  0  0  0  0  0  0
   -1.1421  -13.9166   27.3313 N   0  0  0  0  0  0  0  0  0  0  0  0
   -1.0555  -12.6517   26.1159 H   0  0  0  0  0  0  0  0  0  0  0  0
   -3.0533  -12.9260   25.7213 H   0  0  0  0  0  0  0  0  0  0  0  0
   -2.2969  -12.5468   26.9094 H   0  0  0  0  0  0  0  0  0  0  0  0
   -3.5832  -11.4931   24.4540 H   0  0  0  0  0  0  0  0  0  0  0  0
   -2.2518  -11.4435   23.6651 H   0  0  0  0  0  0  0  0  0  0  0  0
   -2.9982  -13.2411   23.6721 H   0  0  0  0  0  0  0  0  0  0  0  0
   -0.8667  -12.7651   22.2242 H   0  0  0  0  0  0  0  0  0  0  0  0
    0.2439  -12.0531   23.8858 H   0  0  0  0  0  0  0  0  0  0  0  0
    0.8449  -10.6023   22.3192 H   0  0  0  0  0  0  0  0  0  0  0  0
    3.6196   -7.7892   20.0490 H   0  0  0  0  0  0  0  0  0  0  0  0
    5.3438  -10.7466   22.0659 H   0  0  0  0  0  0  0  0  0  0  0  0
    5.1242  -11.4181   20.3959 H   0  0  0  0  0  0  0  0  0  0  0  0
   -3.8191  -15.6500   26.3311 H   0  0  0  0  0  0  0  0  0  0  0  0
   -4.8627  -14.6958   28.5941 H   0  0  0  0  0  0  0  0  0  0  0  0
   -0.8741  -12.9755   29.4431 H   0  0  0  0  0  0  0  0  0  0  0  0
  1  2  1  0
  2  3  1  0
  2  4  1  0
  4  5  1  0
  5  6  1  0
  6  7  2  0
  6  8  1  0
  8  9  2  0
  9 10  1  0
 10 11  1  0
 11 12  2  0
 11 13  1  0
  2 14  1  0
 14 15  2  0
 15 16  1  0
 16 17  2  0
 17 18  1  0
 17 19  1  0
 19 20  2  0
 13  8  1  0
 20 14  1  0
  1 21  1  0
  1 22  1  0
  1 23  1  0
  3 24  1  0
  3 25  1  0
  3 26  1  0
  4 27  1  0
  4 28  1  0
  5 29  1  0
 10 30  1  0
 13 31  1  0
 13 32  1  0
 15 33  1  0
 16 34  1  0
 19 35  1  0
M  END
>  <Energy>  (453) 
955.44810956868673

>  <compound_id>  (453) 
17379

>  <target_id>  (453) 
1

>  <reference_id>  (453) 
49

>  <inspiration_ids>  (453) 
[49, 98]

>  <energy_score>  (453) 
852.9709438787859

>  <distance_score>  (453) 
13.540209509412733

>  <path>  (453) 
/opt/xchem-fragalysis-2/maxwin/BulkDock/SCRATCH/511014/C17379-P49/C17379-P49.minimised.mol

>  <scratch_subdir>  (453) 
/opt/xchem-fragalysis-2/maxwin/BulkDock/SCRATCH/511014/C17379-P49

>  <fragmenstein_runtime>  (453) 
21.928670644760132

>  <fragmenstein_outcome>  (453) 
too moved

>  <fragmenstein_mode>  (453) 
expansion

>  <fragmenstein_error>  (453) 


$$$$
C17379-P98
     RDKit          3D

 35 36  0  0  0  0  0  0  0  0999 V2000
   -9.8725   -5.9716   23.2541 C   0  0  0  0  0  0  0  0  0  0  0  0
  -10.4794   -6.7529   22.0799 C   0  0  0  0  0  0  0  0  0  0  0  0
  -11.7826   -5.9830   21.6664 C   0  0  0  0  0  0  0  0  0  0  0  0
   -9.5084   -6.5537   20.7742 C   0  0  0  0  0  0  0  0  0  0  0  0
   -8.0021   -6.4200   20.6549 N   0  0  0  0  0  0  0  0  0  0  0  0
   -7.0599   -5.5059   21.3150 C   0  0  0  0  0  0  0  0  0  0  0  0
   -7.2369   -4.6887   22.1750 O   0  0  0  0  0  0  0  0  0  0  0  0
   -5.5673   -5.5574   20.7404 C   0  0  0  0  0  0  0  0  0  0  0  0
   -5.2471   -5.7351   19.4820 N   0  0  0  0  0  0  0  0  0  0  0  0
   -3.8579   -5.6704   19.4026 N   0  0  0  0  0  0  0  0  0  0  0  0
   -3.1988   -5.4323   20.6048 C   0  0  0  0  0  0  0  0  0  0  0  0
   -1.9909   -5.3291   20.7684 O   0  0  0  0  0  0  0  0  0  0  0  0
   -4.3345   -5.3342   21.6166 C   0  0  0  0  0  0  0  0  0  0  0  0
  -11.0568   -8.1976   22.5385 C   0  0  0  0  0  0  0  0  0  0  0  0
  -12.0200   -8.3150   23.5832 C   0  0  0  0  0  0  0  0  0  0  0  0
  -12.5292   -9.5724   24.0115 C   0  0  0  0  0  0  0  0  0  0  0  0
  -12.0839  -10.7229   23.3922 C   0  0  0  0  0  0  0  0  0  0  0  0
  -12.4355  -11.9407   23.8444 F   0  0  0  0  0  0  0  0  0  0  0  0
  -11.2183  -10.5482   22.3253 C   0  0  0  0  0  0  0  0  0  0  0  0
  -10.6926   -9.3362   21.9021 N   0  0  0  0  0  0  0  0  0  0  0  0
   -8.8977   -6.3701   23.5361 H   0  0  0  0  0  0  0  0  0  0  0  0
   -9.7273   -4.9179   22.9895 H   0  0  0  0  0  0  0  0  0  0  0  0
  -10.5109   -5.9850   24.1433 H   0  0  0  0  0  0  0  0  0  0  0  0
  -11.5632   -4.9541   21.3563 H   0  0  0  0  0  0  0  0  0  0  0  0
  -12.2824   -6.4853   20.8293 H   0  0  0  0  0  0  0  0  0  0  0  0
  -12.5052   -5.8998   22.4851 H   0  0  0  0  0  0  0  0  0  0  0  0
   -9.8160   -5.6109   20.3030 H   0  0  0  0  0  0  0  0  0  0  0  0
   -9.7818   -7.3332   20.0524 H   0  0  0  0  0  0  0  0  0  0  0  0
   -7.5209   -6.9131   19.9140 H   0  0  0  0  0  0  0  0  0  0  0  0
   -3.3837   -5.7732   18.5123 H   0  0  0  0  0  0  0  0  0  0  0  0
   -4.3641   -4.3408   22.0668 H   0  0  0  0  0  0  0  0  0  0  0  0
   -4.2606   -6.1270   22.3595 H   0  0  0  0  0  0  0  0  0  0  0  0
  -12.3585   -7.4275   24.1129 H   0  0  0  0  0  0  0  0  0  0  0  0
  -13.2216   -9.6306   24.8444 H   0  0  0  0  0  0  0  0  0  0  0  0
  -10.8938  -11.3989   21.7358 H   0  0  0  0  0  0  0  0  0  0  0  0
  1  2  1  0
  2  3  1  0
  2  4  1  0
  4  5  1  0
  5  6  1  0
  6  7  2  0
  6  8  1  0
  8  9  2  0
  9 10  1  0
 10 11  1  0
 11 12  2  0
 11 13  1  0
  2 14  1  0
 14 15  2  0
 15 16  1  0
 16 17  2  0
 17 18  1  0
 17 19  1  0
 19 20  2  0
 13  8  1  0
 20 14  1  0
  1 21  1  0
  1 22  1  0
  1 23  1  0
  3 24  1  0
  3 25  1  0
  3 26  1  0
  4 27  1  0
  4 28  1  0
  5 29  1  0
 10 30  1  0
 13 31  1  0
 13 32  1  0
 15 33  1  0
 16 34  1  0
 19 35  1  0
M  END
>  <Energy>  (454) 
106.96526202810668

>  <compound_id>  (454) 
17379

>  <target_id>  (454) 
1

>  <reference_id>  (454) 
98

>  <inspiration_ids>  (454) 
[49, 98]

>  <energy_score>  (454) 
4.488096338215371

>  <distance_score>  (454) 
17.99703399805954

>  <path>  (454) 
/opt/xchem-fragalysis-2/maxwin/BulkDock/SCRATCH/511014/C17379-P98/C17379-P98.minimised.mol

>  <scratch_subdir>  (454) 
/opt/xchem-fragalysis-2/maxwin/BulkDock/SCRATCH/511014/C17379-P98

>  <fragmenstein_runtime>  (454) 
44.06438589096069

>  <fragmenstein_outcome>  (454) 
too moved

>  <fragmenstein_mode>  (454) 
expansion

>  <fragmenstein_error>  (454) 


$$$$
C17380-P49
     RDKit          3D

 26 27  0  0  0  0  0  0  0  0999 V2000
    1.2028  -11.9020   18.1190 O   0  0  0  0  0  0  0  0  0  0  0  0
    0.3272  -12.7412   18.2728 C   0  0  0  0  0  0  0  0  0  0  0  0
   -1.1552  -12.6541   17.9670 C   0  0  0  0  0  0  0  0  0  0  0  0
   -1.6611  -14.0401   18.4057 C   0  0  0  0  0  0  0  0  0  0  0  0
   -3.1756  -14.4443   18.1982 C   0  0  0  0  0  0  0  0  0  0  0  0
   -3.6768  -13.7863   17.3267 O   0  0  0  0  0  0  0  0  0  0  0  0
   -3.7420  -15.5035   19.0400 N   0  0  0  0  0  0  0  0  0  0  0  0
   -5.0896  -16.1659   19.0126 C   0  0  0  0  0  0  0  0  0  0  0  0
   -5.7480  -16.9260   20.2282 C   0  0  0  0  0  0  0  0  0  0  0  0
   -6.7805  -16.3522   20.9949 C   0  0  0  0  0  0  0  0  0  0  0  0
   -7.4264  -17.0920   22.0217 C   0  0  0  0  0  0  0  0  0  0  0  0
   -7.0347  -18.3939   22.2879 C   0  0  0  0  0  0  0  0  0  0  0  0
   -7.5607  -19.0952   23.3088 F   0  0  0  0  0  0  0  0  0  0  0  0
   -6.0616  -18.9259   21.4670 C   0  0  0  0  0  0  0  0  0  0  0  0
   -5.4324  -18.2373   20.4481 N   0  0  0  0  0  0  0  0  0  0  0  0
   -0.6851  -14.7923   18.8375 N   0  0  0  0  0  0  0  0  0  0  0  0
    0.4784  -14.0284   18.7704 N   0  0  0  0  0  0  0  0  0  0  0  0
   -1.3096  -12.5200   16.8944 H   0  0  0  0  0  0  0  0  0  0  0  0
   -1.6316  -11.8667   18.5514 H   0  0  0  0  0  0  0  0  0  0  0  0
   -3.0474  -15.7851   19.7348 H   0  0  0  0  0  0  0  0  0  0  0  0
   -5.7954  -15.4004   18.6683 H   0  0  0  0  0  0  0  0  0  0  0  0
   -5.0246  -16.8955   18.1960 H   0  0  0  0  0  0  0  0  0  0  0  0
   -7.1012  -15.3326   20.7936 H   0  0  0  0  0  0  0  0  0  0  0  0
   -8.2183  -16.6385   22.6102 H   0  0  0  0  0  0  0  0  0  0  0  0
   -5.7225  -19.9482   21.6055 H   0  0  0  0  0  0  0  0  0  0  0  0
    1.3696  -14.4218   19.0478 H   0  0  0  0  0  0  0  0  0  0  0  0
  1  2  2  0
  2  3  1  0
  3  4  1  0
  4  5  1  0
  5  6  2  0
  5  7  1  0
  7  8  1  0
  8  9  1  0
  9 10  2  0
 10 11  1  0
 11 12  2  0
 12 13  1  0
 12 14  1  0
 14 15  2  0
  4 16  2  0
 16 17  1  0
 17  2  1  0
 15  9  1  0
  3 18  1  0
  3 19  1  0
  7 20  1  0
  8 21  1  0
  8 22  1  0
 10 23  1  0
 11 24  1  0
 14 25  1  0
 17 26  1  0
M  END
>  <Energy>  (455) 
77.866149370943575

>  <compound_id>  (455) 
17380

>  <target_id>  (455) 
1

>  <reference_id>  (455) 
49

>  <inspiration_ids>  (455) 
[49, 98]

>  <energy_score>  (455) 
1.002941828984035

>  <distance_score>  (455) 
16.19274415374819

>  <path>  (455) 
/opt/xchem-fragalysis-2/maxwin/BulkDock/SCRATCH/511014/C17380-P49/C17380-P49.minimised.mol

>  <scratch_subdir>  (455) 
/opt/xchem-fragalysis-2/maxwin/BulkDock/SCRATCH/511014/C17380-P49

>  <fragmenstein_runtime>  (455) 
22.228808403015137

>  <fragmenstein_outcome>  (455) 
too moved

>  <fragmenstein_mode>  (455) 
expansion

>  <fragmenstein_error>  (455) 


$$$$
C17380-P98
     RDKit          3D

 26 27  0  0  0  0  0  0  0  0999 V2000
    3.0051   -7.5724   19.4579 O   0  0  0  0  0  0  0  0  0  0  0  0
    1.8921   -7.9006   19.8422 C   0  0  0  0  0  0  0  0  0  0  0  0
    1.1442   -7.3971   21.0386 C   0  0  0  0  0  0  0  0  0  0  0  0
   -0.0993   -8.2979   21.0461 C   0  0  0  0  0  0  0  0  0  0  0  0
   -0.9656   -8.2696   22.3142 C   0  0  0  0  0  0  0  0  0  0  0  0
   -0.7621   -7.2545   22.9280 O   0  0  0  0  0  0  0  0  0  0  0  0
   -1.7928   -9.4505   22.6530 N   0  0  0  0  0  0  0  0  0  0  0  0
   -2.6845   -9.8548   24.1398 C   0  0  0  0  0  0  0  0  0  0  0  0
   -2.5925  -11.6066   25.2752 C   0  0  0  0  0  0  0  0  0  0  0  0
   -1.8438  -13.1001   25.2471 C   0  0  0  0  0  0  0  0  0  0  0  0
   -2.2125  -14.4449   25.3293 C   0  0  0  0  0  0  0  0  0  0  0  0
   -2.7650  -14.2750   26.4386 C   0  0  0  0  0  0  0  0  0  0  0  0
   -2.4052  -15.1094   27.4844 F   0  0  0  0  0  0  0  0  0  0  0  0
   -3.4491  -12.8166   26.5840 C   0  0  0  0  0  0  0  0  0  0  0  0
   -3.6415  -12.0929   25.5402 N   0  0  0  0  0  0  0  0  0  0  0  0
   -0.1467   -9.0893   20.0143 N   0  0  0  0  0  0  0  0  0  0  0  0
    1.0132   -8.8217   19.2747 N   0  0  0  0  0  0  0  0  0  0  0  0
    0.8554   -6.3528   20.9038 H   0  0  0  0  0  0  0  0  0  0  0  0
    1.7356   -7.5476   21.9437 H   0  0  0  0  0  0  0  0  0  0  0  0
   -1.8008  -10.0931   21.8564 H   0  0  0  0  0  0  0  0  0  0  0  0
   -3.6283   -9.8982   23.6127 H   0  0  0  0  0  0  0  0  0  0  0  0
   -2.4457   -9.0621   24.8655 H   0  0  0  0  0  0  0  0  0  0  0  0
   -0.8254  -13.1846   25.6320 H   0  0  0  0  0  0  0  0  0  0  0  0
   -1.8241  -15.2195   24.7295 H   0  0  0  0  0  0  0  0  0  0  0  0
   -3.9228  -12.3031   27.4434 H   0  0  0  0  0  0  0  0  0  0  0  0
    1.2382   -9.3854   18.4624 H   0  0  0  0  0  0  0  0  0  0  0  0
  1  2  2  0
  2  3  1  0
  3  4  1  0
  4  5  1  0
  5  6  2  0
  5  7  1  0
  7  8  1  0
  8  9  1  0
  9 10  2  0
 10 11  1  0
 11 12  2  0
 12 13  1  0
 12 14  1  0
 14 15  2  0
  4 16  2  0
 16 17  1  0
 17  2  1  0
 15  9  1  0
  3 18  1  0
  3 19  1  0
  7 20  1  0
  8 21  1  0
  8 22  1  0
 10 23  1  0
 11 24  1  0
 14 25  1  0
 17 26  1  0
M  END
>  <Energy>  (456) 
425.0950817435031

>  <compound_id>  (456) 
17380

>  <target_id>  (456) 
1

>  <reference_id>  (456) 
98

>  <inspiration_ids>  (456) 
[49, 98]

>  <energy_score>  (456) 
348.231874201541

>  <distance_score>  (456) 
14.829916484435952

>  <path>  (456) 
/opt/xchem-fragalysis-2/maxwin/BulkDock/SCRATCH/511014/C17380-P98/C17380-P98.minimised.mol

>  <scratch_subdir>  (456) 
/opt/xchem-fragalysis-2/maxwin/BulkDock/SCRATCH/511014/C17380-P98

>  <fragmenstein_runtime>  (456) 
21.684178113937378

>  <fragmenstein_outcome>  (456) 
too moved

>  <fragmenstein_mode>  (456) 
expansion

>  <fragmenstein_error>  (456) 


$$$$
C17381-P49
     RDKit          3D

 30 31  0  0  0  0  0  0  0  0999 V2000
    6.4539   -8.5103   20.5154 O   0  0  0  0  0  0  0  0  0  0  0  0
    5.3627   -8.9987   20.7504 C   0  0  0  0  0  0  0  0  0  0  0  0
    5.0574  -10.3907   21.2132 C   0  0  0  0  0  0  0  0  0  0  0  0
    3.5483  -10.3313   21.3280 C   0  0  0  0  0  0  0  0  0  0  0  0
    2.7646  -11.5859   21.7431 C   0  0  0  0  0  0  0  0  0  0  0  0
    3.4039  -12.5901   21.5471 O   0  0  0  0  0  0  0  0  0  0  0  0
    1.3153  -11.4048   22.2211 N   0  0  0  0  0  0  0  0  0  0  0  0
    0.0181  -12.6226   22.5404 C   0  0  0  0  0  0  0  0  0  0  0  0
   -1.5020  -12.8175   23.4637 C   0  0  0  0  0  0  0  0  0  0  0  0
   -1.8544  -13.8749   22.5934 O   0  0  0  0  0  0  0  0  0  0  0  0
   -2.5039  -13.4276   24.5874 C   0  0  0  0  0  0  0  0  0  0  0  0
   -2.2763  -13.4979   25.9877 C   0  0  0  0  0  0  0  0  0  0  0  0
   -2.6067  -14.6972   26.5113 C   0  0  0  0  0  0  0  0  0  0  0  0
   -2.1441  -15.8237   26.1463 N   0  0  0  0  0  0  0  0  0  0  0  0
   -2.5093  -15.8779   24.9375 C   0  0  0  0  0  0  0  0  0  0  0  0
   -2.9933  -14.7172   24.1788 C   0  0  0  0  0  0  0  0  0  0  0  0
    3.0404   -9.1798   20.9817 N   0  0  0  0  0  0  0  0  0  0  0  0
    4.1220   -8.3825   20.6452 N   0  0  0  0  0  0  0  0  0  0  0  0
    5.5118  -10.5895   22.1851 H   0  0  0  0  0  0  0  0  0  0  0  0
    5.3594  -11.1179   20.4571 H   0  0  0  0  0  0  0  0  0  0  0  0
    1.0775  -10.4339   22.1968 H   0  0  0  0  0  0  0  0  0  0  0  0
    0.6542  -13.3706   22.1316 H   0  0  0  0  0  0  0  0  0  0  0  0
   -0.5628  -12.4647   21.6057 H   0  0  0  0  0  0  0  0  0  0  0  0
   -2.0847  -11.9060   23.6193 H   0  0  0  0  0  0  0  0  0  0  0  0
   -1.7630  -13.9005   21.6224 H   0  0  0  0  0  0  0  0  0  0  0  0
   -1.7519  -12.9126   26.6836 H   0  0  0  0  0  0  0  0  0  0  0  0
   -3.5212  -14.7545   27.1063 H   0  0  0  0  0  0  0  0  0  0  0  0
   -2.3857  -16.9043   24.7128 H   0  0  0  0  0  0  0  0  0  0  0  0
   -3.4968  -14.6343   23.2375 H   0  0  0  0  0  0  0  0  0  0  0  0
    3.9848   -7.4223   20.3463 H   0  0  0  0  0  0  0  0  0  0  0  0
  1  2  2  0
  2  3  1  0
  3  4  1  0
  4  5  1  0
  5  6  2  0
  5  7  1  0
  7  8  1  0
  8  9  1  0
  9 10  1  0
  9 11  1  0
 11 12  2  0
 12 13  1  0
 13 14  2  0
 14 15  1  0
 15 16  2  0
  4 17  2  0
 17 18  1  0
 18  2  1  0
 16 11  1  0
  3 19  1  0
  3 20  1  0
  7 21  1  0
  8 22  1  0
  8 23  1  0
  9 24  1  0
 10 25  1  0
 12 26  1  0
 13 27  1  0
 15 28  1  0
 16 29  1  0
 18 30  1  0
M  END
>  <Energy>  (457) 
373.92178018116181

>  <compound_id>  (457) 
17381

>  <target_id>  (457) 
1

>  <reference_id>  (457) 
49

>  <inspiration_ids>  (457) 
[49, 98]

>  <energy_score>  (457) 
286.4330742361799

>  <distance_score>  (457) 
13.572137052593199

>  <path>  (457) 
/opt/xchem-fragalysis-2/maxwin/BulkDock/SCRATCH/511014/C17381-P49/C17381-P49.minimised.mol

>  <scratch_subdir>  (457) 
/opt/xchem-fragalysis-2/maxwin/BulkDock/SCRATCH/511014/C17381-P49

>  <fragmenstein_runtime>  (457) 
14.610624074935913

>  <fragmenstein_outcome>  (457) 
too moved

>  <fragmenstein_mode>  (457) 
expansion

>  <fragmenstein_error>  (457) 


$$$$
C17381-P98
     RDKit          3D

 30 31  0  0  0  0  0  0  0  0999 V2000
    8.1985  -11.4768   21.3368 O   0  0  0  0  0  0  0  0  0  0  0  0
    7.1666  -12.0860   21.5675 C   0  0  0  0  0  0  0  0  0  0  0  0
    6.7702  -12.8240   22.8245 C   0  0  0  0  0  0  0  0  0  0  0  0
    5.3337  -13.1944   22.5121 C   0  0  0  0  0  0  0  0  0  0  0  0
    4.3742  -13.6468   23.6575 C   0  0  0  0  0  0  0  0  0  0  0  0
    4.8374  -14.2328   24.5896 O   0  0  0  0  0  0  0  0  0  0  0  0
    3.0424  -13.1685   23.4174 N   0  0  0  0  0  0  0  0  0  0  0  0
    1.8074  -13.1530   24.3065 C   0  0  0  0  0  0  0  0  0  0  0  0
    0.1273  -14.2766   24.2786 C   0  0  0  0  0  0  0  0  0  0  0  0
   -0.2405  -13.9836   22.9640 O   0  0  0  0  0  0  0  0  0  0  0  0
   -1.6771  -14.7789   24.7924 C   0  0  0  0  0  0  0  0  0  0  0  0
   -2.5265  -15.8590   24.7670 C   0  0  0  0  0  0  0  0  0  0  0  0
   -2.7322  -16.9485   25.9614 C   0  0  0  0  0  0  0  0  0  0  0  0
   -2.4966  -16.6359   27.2371 N   0  0  0  0  0  0  0  0  0  0  0  0
   -2.2638  -15.3056   27.2757 C   0  0  0  0  0  0  0  0  0  0  0  0
   -2.3051  -14.4378   25.9135 C   0  0  0  0  0  0  0  0  0  0  0  0
    4.9667  -12.8412   21.3087 N   0  0  0  0  0  0  0  0  0  0  0  0
    6.0699  -12.2365   20.7281 N   0  0  0  0  0  0  0  0  0  0  0  0
    6.8105  -12.1552   23.6864 H   0  0  0  0  0  0  0  0  0  0  0  0
    7.3755  -13.7207   22.9648 H   0  0  0  0  0  0  0  0  0  0  0  0
    2.9910  -12.7847   22.4702 H   0  0  0  0  0  0  0  0  0  0  0  0
    2.0015  -13.2217   25.3599 H   0  0  0  0  0  0  0  0  0  0  0  0
    1.6504  -12.0944   24.1183 H   0  0  0  0  0  0  0  0  0  0  0  0
    0.3301  -13.7983   25.2875 H   0  0  0  0  0  0  0  0  0  0  0  0
   -0.8216  -14.6817   22.5906 H   0  0  0  0  0  0  0  0  0  0  0  0
   -3.4403  -15.6122   24.2198 H   0  0  0  0  0  0  0  0  0  0  0  0
   -2.4222  -17.9826   25.7999 H   0  0  0  0  0  0  0  0  0  0  0  0
   -2.1865  -14.8766   28.2586 H   0  0  0  0  0  0  0  0  0  0  0  0
   -2.6782  -13.3907   25.8907 H   0  0  0  0  0  0  0  0  0  0  0  0
    6.0073  -11.8288   19.8018 H   0  0  0  0  0  0  0  0  0  0  0  0
  1  2  2  0
  2  3  1  0
  3  4  1  0
  4  5  1  0
  5  6  2  0
  5  7  1  0
  7  8  1  0
  8  9  1  0
  9 10  1  0
  9 11  1  0
 11 12  2  0
 12 13  1  0
 13 14  2  0
 14 15  1  0
 15 16  2  0
  4 17  2  0
 17 18  1  0
 18  2  1  0
 16 11  1  0
  3 19  1  0
  3 20  1  0
  7 21  1  0
  8 22  1  0
  8 23  1  0
  9 24  1  0
 10 25  1  0
 12 26  1  0
 13 27  1  0
 15 28  1  0
 16 29  1  0
 18 30  1  0
M  END
>  <Energy>  (458) 
433.40205691581019

>  <compound_id>  (458) 
17381

>  <target_id>  (458) 
1

>  <reference_id>  (458) 
98

>  <inspiration_ids>  (458) 
[49, 98]

>  <energy_score>  (458) 
345.9133509708292

>  <distance_score>  (458) 
13.745234416961928

>  <path>  (458) 
/opt/xchem-fragalysis-2/maxwin/BulkDock/SCRATCH/511014/C17381-P98/C17381-P98.minimised.mol

>  <scratch_subdir>  (458) 
/opt/xchem-fragalysis-2/maxwin/BulkDock/SCRATCH/511014/C17381-P98

>  <fragmenstein_runtime>  (458) 
22.12657070159912

>  <fragmenstein_outcome>  (458) 
too moved

>  <fragmenstein_mode>  (458) 
expansion

>  <fragmenstein_error>  (458) 


$$$$
C17384-P49
     RDKit          3D

 29 30  0  0  0  0  0  0  0  0999 V2000
   -2.7775  -12.9702   24.6100 C   0  0  0  0  0  0  0  0  0  0  0  0
   -3.5429  -11.1839   24.4689 C   0  0  0  0  0  0  0  0  0  0  0  0
   -1.9565  -11.1301   23.9687 N   0  0  0  0  0  0  0  0  0  0  0  0
   -0.4531  -10.0596   24.5818 C   0  0  0  0  0  0  0  0  0  0  0  0
   -0.4655   -9.1424   25.4299 O   0  0  0  0  0  0  0  0  0  0  0  0
    1.0884  -10.2368   23.9699 C   0  0  0  0  0  0  0  0  0  0  0  0
    2.0421  -10.9212   24.5424 N   0  0  0  0  0  0  0  0  0  0  0  0
    3.2284  -10.6023   23.8918 N   0  0  0  0  0  0  0  0  0  0  0  0
    3.1285   -9.6190   22.9201 C   0  0  0  0  0  0  0  0  0  0  0  0
    4.0311   -9.1242   22.2617 O   0  0  0  0  0  0  0  0  0  0  0  0
    1.6522   -9.3088   22.8820 C   0  0  0  0  0  0  0  0  0  0  0  0
   -4.5773  -10.4898   25.9303 C   0  0  0  0  0  0  0  0  0  0  0  0
   -4.1874   -9.8672   27.1431 C   0  0  0  0  0  0  0  0  0  0  0  0
   -5.0521   -9.8374   28.2925 C   0  0  0  0  0  0  0  0  0  0  0  0
   -6.3978  -10.1874   28.1916 C   0  0  0  0  0  0  0  0  0  0  0  0
   -7.3190  -10.7416   29.5404 Cl  0  0  0  0  0  0  0  0  0  0  0  0
   -7.0219  -10.3246   27.0155 N   0  0  0  0  0  0  0  0  0  0  0  0
   -6.1777  -10.4315   25.9406 C   0  0  0  0  0  0  0  0  0  0  0  0
   -1.9790  -13.1502   23.9157 H   0  0  0  0  0  0  0  0  0  0  0  0
   -3.2096  -13.8623   24.0811 H   0  0  0  0  0  0  0  0  0  0  0  0
   -2.4156  -13.2277   25.6229 H   0  0  0  0  0  0  0  0  0  0  0  0
   -4.0945  -11.1350   23.5243 H   0  0  0  0  0  0  0  0  0  0  0  0
   -1.6283  -11.8516   23.3374 H   0  0  0  0  0  0  0  0  0  0  0  0
    4.1081  -10.9919   24.2109 H   0  0  0  0  0  0  0  0  0  0  0  0
    1.5003   -8.2648   23.1628 H   0  0  0  0  0  0  0  0  0  0  0  0
    1.2480   -9.5517   21.8988 H   0  0  0  0  0  0  0  0  0  0  0  0
   -3.2462   -9.3617   27.2639 H   0  0  0  0  0  0  0  0  0  0  0  0
   -4.6306   -9.5694   29.2576 H   0  0  0  0  0  0  0  0  0  0  0  0
   -6.7887  -10.6226   25.0562 H   0  0  0  0  0  0  0  0  0  0  0  0
  1  2  1  0
  2  3  1  0
  3  4  1  0
  4  5  2  0
  4  6  1  0
  6  7  2  0
  7  8  1  0
  8  9  1  0
  9 10  2  0
  9 11  1  0
  2 12  1  0
 12 13  2  0
 13 14  1  0
 14 15  2  0
 15 16  1  0
 15 17  1  0
 17 18  2  0
 11  6  1  0
 18 12  1  0
  1 19  1  0
  1 20  1  0
  1 21  1  0
  2 22  1  0
  3 23  1  0
  8 24  1  0
 11 25  1  0
 11 26  1  0
 13 27  1  0
 14 28  1  0
 18 29  1  0
M  END
>  <Energy>  (459) 
378.2793448611381

>  <compound_id>  (459) 
17384

>  <target_id>  (459) 
1

>  <reference_id>  (459) 
49

>  <inspiration_ids>  (459) 
[49, 98]

>  <energy_score>  (459) 
325.0312352532261

>  <distance_score>  (459) 
15.542120493144289

>  <path>  (459) 
/opt/xchem-fragalysis-2/maxwin/BulkDock/SCRATCH/511014/C17384-P49/C17384-P49.minimised.mol

>  <scratch_subdir>  (459) 
/opt/xchem-fragalysis-2/maxwin/BulkDock/SCRATCH/511014/C17384-P49

>  <fragmenstein_runtime>  (459) 
19.987341165542603

>  <fragmenstein_outcome>  (459) 
too moved

>  <fragmenstein_mode>  (459) 
expansion

>  <fragmenstein_error>  (459) 


$$$$
C17384-P98
     RDKit          3D

 29 30  0  0  0  0  0  0  0  0999 V2000
   -7.9524   -6.5168   28.2194 C   0  0  0  0  0  0  0  0  0  0  0  0
   -6.8271   -7.4513   28.6722 C   0  0  0  0  0  0  0  0  0  0  0  0
   -5.5943   -7.1443   27.8231 N   0  0  0  0  0  0  0  0  0  0  0  0
   -4.4565   -6.2373   28.0653 C   0  0  0  0  0  0  0  0  0  0  0  0
   -4.1771   -5.5739   29.0269 O   0  0  0  0  0  0  0  0  0  0  0  0
   -3.3443   -6.1172   26.9302 C   0  0  0  0  0  0  0  0  0  0  0  0
   -3.5054   -6.2681   25.6431 N   0  0  0  0  0  0  0  0  0  0  0  0
   -2.2564   -6.0895   25.0464 N   0  0  0  0  0  0  0  0  0  0  0  0
   -1.2097   -5.8015   25.9155 C   0  0  0  0  0  0  0  0  0  0  0  0
   -0.0337   -5.6316   25.6293 O   0  0  0  0  0  0  0  0  0  0  0  0
   -1.8888   -5.7544   27.2741 C   0  0  0  0  0  0  0  0  0  0  0  0
   -7.4086   -8.9152   28.8297 C   0  0  0  0  0  0  0  0  0  0  0  0
   -7.8990   -9.7161   27.7884 C   0  0  0  0  0  0  0  0  0  0  0  0
   -8.3505  -11.0393   28.0185 C   0  0  0  0  0  0  0  0  0  0  0  0
   -8.3432  -11.5458   29.3044 C   0  0  0  0  0  0  0  0  0  0  0  0
   -8.8229  -13.1766   29.6324 Cl  0  0  0  0  0  0  0  0  0  0  0  0
   -7.9848  -10.8011   30.3650 N   0  0  0  0  0  0  0  0  0  0  0  0
   -7.5409   -9.5245   30.0972 C   0  0  0  0  0  0  0  0  0  0  0  0
   -8.8323   -6.6091   28.8654 H   0  0  0  0  0  0  0  0  0  0  0  0
   -8.2618   -6.7390   27.1918 H   0  0  0  0  0  0  0  0  0  0  0  0
   -7.6239   -5.4718   28.2432 H   0  0  0  0  0  0  0  0  0  0  0  0
   -6.5308   -7.1299   29.6791 H   0  0  0  0  0  0  0  0  0  0  0  0
   -5.5570   -7.4728   26.8732 H   0  0  0  0  0  0  0  0  0  0  0  0
   -2.1441   -6.1778   24.0418 H   0  0  0  0  0  0  0  0  0  0  0  0
   -1.8425   -4.7449   27.6872 H   0  0  0  0  0  0  0  0  0  0  0  0
   -1.4589   -6.4945   27.9500 H   0  0  0  0  0  0  0  0  0  0  0  0
   -7.9241   -9.3337   26.7740 H   0  0  0  0  0  0  0  0  0  0  0  0
   -8.6934  -11.6462   27.1928 H   0  0  0  0  0  0  0  0  0  0  0  0
   -7.2498   -8.9801   30.9947 H   0  0  0  0  0  0  0  0  0  0  0  0
  1  2  1  0
  2  3  1  0
  3  4  1  0
  4  5  2  0
  4  6  1  0
  6  7  2  0
  7  8  1  0
  8  9  1  0
  9 10  2  0
  9 11  1  0
  2 12  1  0
 12 13  2  0
 13 14  1  0
 14 15  2  0
 15 16  1  0
 15 17  1  0
 17 18  2  0
 11  6  1  0
 18 12  1  0
  1 19  1  0
  1 20  1  0
  1 21  1  0
  2 22  1  0
  3 23  1  0
  8 24  1  0
 11 25  1  0
 11 26  1  0
 13 27  1  0
 14 28  1  0
 18 29  1  0
M  END
>  <Energy>  (460) 
53.763394671182319

>  <compound_id>  (460) 
17384

>  <target_id>  (460) 
1

>  <reference_id>  (460) 
98

>  <inspiration_ids>  (460) 
[49, 98]

>  <energy_score>  (460) 
0.5152850632703121

>  <distance_score>  (460) 
17.261133394902185

>  <path>  (460) 
/opt/xchem-fragalysis-2/maxwin/BulkDock/SCRATCH/511014/C17384-P98/C17384-P98.minimised.mol

>  <scratch_subdir>  (460) 
/opt/xchem-fragalysis-2/maxwin/BulkDock/SCRATCH/511014/C17384-P98

>  <fragmenstein_runtime>  (460) 
37.476293325424194

>  <fragmenstein_outcome>  (460) 
too moved

>  <fragmenstein_mode>  (460) 
expansion

>  <fragmenstein_error>  (460) 


$$$$
C17385-P49
     RDKit          3D

 35 37  0  0  0  0  0  0  0  0999 V2000
    5.8694  -10.5252   23.3699 O   0  0  0  0  0  0  0  0  0  0  0  0
    5.0794  -10.9999   24.1707 C   0  0  0  0  0  0  0  0  0  0  0  0
    3.9162  -12.3337   24.0319 C   0  0  0  0  0  0  0  0  0  0  0  0
    3.3168  -12.5045   25.6458 C   0  0  0  0  0  0  0  0  0  0  0  0
    2.2795  -14.0478   26.4020 C   0  0  0  0  0  0  0  0  0  0  0  0
    2.7475  -15.1137   25.9790 O   0  0  0  0  0  0  0  0  0  0  0  0
    0.9636  -14.3966   27.6498 N   0  0  0  0  0  0  0  0  0  0  0  0
   -0.7377  -14.6315   27.4465 C   0  0  0  0  0  0  0  0  0  0  0  0
   -1.5867  -15.0539   28.6213 C   0  0  0  0  0  0  0  0  0  0  0  0
   -0.9911  -16.2551   29.1511 N   0  0  0  0  0  0  0  0  0  0  0  0
    0.0513  -15.8438   30.0798 C   0  0  0  0  0  0  0  0  0  0  0  0
   -0.7737  -15.8590   31.3994 C   0  0  0  0  0  0  0  0  0  0  0  0
   -1.3562  -14.7560   32.0155 C   0  0  0  0  0  0  0  0  0  0  0  0
   -2.3816  -14.9395   32.9637 C   0  0  0  0  0  0  0  0  0  0  0  0
   -2.8015  -16.2228   33.2885 C   0  0  0  0  0  0  0  0  0  0  0  0
   -2.2582  -17.3264   32.7515 N   0  0  0  0  0  0  0  0  0  0  0  0
   -1.2786  -17.1162   31.8306 C   0  0  0  0  0  0  0  0  0  0  0  0
    1.0722  -14.5907   29.3595 C   0  0  0  0  0  0  0  0  0  0  0  0
    4.0589  -11.4964   26.1971 N   0  0  0  0  0  0  0  0  0  0  0  0
    4.8741  -10.6022   25.4692 N   0  0  0  0  0  0  0  0  0  0  0  0
    3.1510  -12.0799   23.3135 H   0  0  0  0  0  0  0  0  0  0  0  0
    4.3807  -13.1847   23.5931 H   0  0  0  0  0  0  0  0  0  0  0  0
   -1.3224  -13.8214   26.9824 H   0  0  0  0  0  0  0  0  0  0  0  0
   -0.7841  -15.5347   26.8055 H   0  0  0  0  0  0  0  0  0  0  0  0
   -1.7095  -14.2365   29.3386 H   0  0  0  0  0  0  0  0  0  0  0  0
   -2.5943  -15.2965   28.2628 H   0  0  0  0  0  0  0  0  0  0  0  0
   -0.5988  -16.8214   28.4127 H   0  0  0  0  0  0  0  0  0  0  0  0
    0.7216  -16.6900   30.2383 H   0  0  0  0  0  0  0  0  0  0  0  0
   -1.0853  -13.7464   31.7208 H   0  0  0  0  0  0  0  0  0  0  0  0
   -2.8583  -14.0807   33.4258 H   0  0  0  0  0  0  0  0  0  0  0  0
   -3.5955  -16.3923   34.0089 H   0  0  0  0  0  0  0  0  0  0  0  0
   -0.9287  -18.0337   31.3595 H   0  0  0  0  0  0  0  0  0  0  0  0
    0.6338  -13.6856   29.7666 H   0  0  0  0  0  0  0  0  0  0  0  0
    2.0977  -14.6904   29.7150 H   0  0  0  0  0  0  0  0  0  0  0  0
    5.3228   -9.8169   25.9264 H   0  0  0  0  0  0  0  0  0  0  0  0
  1  2  2  0
  2  3  1  0
  3  4  1  0
  4  5  1  0
  5  6  2  0
  5  7  1  0
  7  8  1  0
  8  9  1  0
  9 10  1  0
 10 11  1  0
 11 12  1  0
 12 13  2  0
 13 14  1  0
 14 15  2  0
 15 16  1  0
 16 17  2  0
 11 18  1  0
  4 19  2  0
 19 20  1  0
 20  2  1  0
 18  7  1  0
 17 12  1  0
  3 21  1  0
  3 22  1  0
  8 23  1  0
  8 24  1  0
  9 25  1  0
  9 26  1  0
 10 27  1  0
 11 28  1  0
 13 29  1  0
 14 30  1  0
 15 31  1  0
 17 32  1  0
 18 33  1  0
 18 34  1  0
 20 35  1  0
M  END
>  <Energy>  (461) 
437.92763206922365

>  <compound_id>  (461) 
17385

>  <target_id>  (461) 
1

>  <reference_id>  (461) 
49

>  <inspiration_ids>  (461) 
[49, 98]

>  <energy_score>  (461) 
295.41905082518053

>  <distance_score>  (461) 
14.693441238903159

>  <path>  (461) 
/opt/xchem-fragalysis-2/maxwin/BulkDock/SCRATCH/511014/C17385-P49/C17385-P49.minimised.mol

>  <scratch_subdir>  (461) 
/opt/xchem-fragalysis-2/maxwin/BulkDock/SCRATCH/511014/C17385-P49

>  <fragmenstein_runtime>  (461) 
15.597100257873535

>  <fragmenstein_outcome>  (461) 
too moved

>  <fragmenstein_mode>  (461) 
expansion

>  <fragmenstein_error>  (461) 


$$$$
C17385-P98
     RDKit          3D

 35 37  0  0  0  0  0  0  0  0999 V2000
    4.1715   -5.0306   18.7753 O   0  0  0  0  0  0  0  0  0  0  0  0
    5.0657   -5.8361   18.6257 C   0  0  0  0  0  0  0  0  0  0  0  0
    5.1354   -6.9486   17.6601 C   0  0  0  0  0  0  0  0  0  0  0  0
    5.7635   -7.9620   18.6263 C   0  0  0  0  0  0  0  0  0  0  0  0
    5.1515   -9.3495   18.5669 C   0  0  0  0  0  0  0  0  0  0  0  0
    4.1403   -9.3264   17.8091 O   0  0  0  0  0  0  0  0  0  0  0  0
    5.8236  -10.9826   19.3310 N   0  0  0  0  0  0  0  0  0  0  0  0
    5.5841  -11.7131   20.4945 C   0  0  0  0  0  0  0  0  0  0  0  0
    4.5401  -12.9497   20.0488 C   0  0  0  0  0  0  0  0  0  0  0  0
    3.5395  -13.1224   21.1557 N   0  0  0  0  0  0  0  0  0  0  0  0
    3.1551  -12.0534   22.1423 C   0  0  0  0  0  0  0  0  0  0  0  0
    1.1161  -11.3883   22.3116 C   0  0  0  0  0  0  0  0  0  0  0  0
   -0.3045  -10.9344   22.1198 C   0  0  0  0  0  0  0  0  0  0  0  0
   -1.4598  -10.5772   21.1728 C   0  0  0  0  0  0  0  0  0  0  0  0
   -1.3958   -9.2820   20.8592 C   0  0  0  0  0  0  0  0  0  0  0  0
   -0.1626   -8.8087   21.0198 N   0  0  0  0  0  0  0  0  0  0  0  0
    0.8891   -9.8314   21.4417 C   0  0  0  0  0  0  0  0  0  0  0  0
    4.9048  -11.2934   21.2114 C   0  0  0  0  0  0  0  0  0  0  0  0
    6.4871   -7.3955   19.5184 N   0  0  0  0  0  0  0  0  0  0  0  0
    6.1656   -6.0359   19.4384 N   0  0  0  0  0  0  0  0  0  0  0  0
    4.1282   -7.1828   17.3169 H   0  0  0  0  0  0  0  0  0  0  0  0
    5.7812   -6.6947   16.8230 H   0  0  0  0  0  0  0  0  0  0  0  0
    6.4608  -12.2867   21.0657 H   0  0  0  0  0  0  0  0  0  0  0  0
    6.3253  -12.2543   19.8947 H   0  0  0  0  0  0  0  0  0  0  0  0
    4.0926  -12.8250   19.0675 H   0  0  0  0  0  0  0  0  0  0  0  0
    5.2696  -13.7319   19.8401 H   0  0  0  0  0  0  0  0  0  0  0  0
    2.9144  -13.9150   21.0643 H   0  0  0  0  0  0  0  0  0  0  0  0
    3.2641  -12.4752   23.1359 H   0  0  0  0  0  0  0  0  0  0  0  0
   -0.4620  -10.0762   22.7746 H   0  0  0  0  0  0  0  0  0  0  0  0
   -2.0423  -11.2924   20.6146 H   0  0  0  0  0  0  0  0  0  0  0  0
   -2.0998   -8.7099   20.2807 H   0  0  0  0  0  0  0  0  0  0  0  0
    1.7632   -9.2037   21.3396 H   0  0  0  0  0  0  0  0  0  0  0  0
    5.8305  -11.0645   22.0833 H   0  0  0  0  0  0  0  0  0  0  0  0
    4.7221  -10.5862   22.0588 H   0  0  0  0  0  0  0  0  0  0  0  0
    6.2007   -5.5073   20.3064 H   0  0  0  0  0  0  0  0  0  0  0  0
  1  2  2  0
  2  3  1  0
  3  4  1  0
  4  5  1  0
  5  6  2  0
  5  7  1  0
  7  8  1  0
  8  9  1  0
  9 10  1  0
 10 11  1  0
 11 12  1  0
 12 13  2  0
 13 14  1  0
 14 15  2  0
 15 16  1  0
 16 17  2  0
 11 18  1  0
  4 19  2  0
 19 20  1  0
 20  2  1  0
 18  7  1  0
 17 12  1  0
  3 21  1  0
  3 22  1  0
  8 23  1  0
  8 24  1  0
  9 25  1  0
  9 26  1  0
 10 27  1  0
 11 28  1  0
 13 29  1  0
 14 30  1  0
 15 31  1  0
 17 32  1  0
 18 33  1  0
 18 34  1  0
 20 35  1  0
M  END
>  <Energy>  (462) 
1503.60021230651

>  <compound_id>  (462) 
17385

>  <target_id>  (462) 
1

>  <reference_id>  (462) 
98

>  <inspiration_ids>  (462) 
[49, 98]

>  <energy_score>  (462) 
1361.0916310624684

>  <distance_score>  (462) 
15.559745261779923

>  <path>  (462) 
/opt/xchem-fragalysis-2/maxwin/BulkDock/SCRATCH/511014/C17385-P98/C17385-P98.minimised.mol

>  <scratch_subdir>  (462) 
/opt/xchem-fragalysis-2/maxwin/BulkDock/SCRATCH/511014/C17385-P98

>  <fragmenstein_runtime>  (462) 
25.563801288604736

>  <fragmenstein_outcome>  (462) 
too moved

>  <fragmenstein_mode>  (462) 
expansion

>  <fragmenstein_error>  (462) 


$$$$
C17386-P49
     RDKit          3D

 32 33  0  0  0  0  0  0  0  0999 V2000
   -3.1572  -14.4738   23.6494 C   0  0  0  0  0  0  0  0  0  0  0  0
   -3.4541  -14.3672   22.1204 C   0  0  0  0  0  0  0  0  0  0  0  0
   -1.5094  -13.6708   21.6045 C   0  0  0  0  0  0  0  0  0  0  0  0
    0.0742  -12.6382   22.2645 N   0  0  0  0  0  0  0  0  0  0  0  0
    1.8781  -12.6029   21.7392 C   0  0  0  0  0  0  0  0  0  0  0  0
    2.4652  -13.2738   20.9346 O   0  0  0  0  0  0  0  0  0  0  0  0
    2.8288  -11.4766   22.2943 C   0  0  0  0  0  0  0  0  0  0  0  0
    2.5368  -10.4310   23.0127 N   0  0  0  0  0  0  0  0  0  0  0  0
    3.6731   -9.6189   22.9851 N   0  0  0  0  0  0  0  0  0  0  0  0
    4.7141  -10.0685   22.1763 C   0  0  0  0  0  0  0  0  0  0  0  0
    5.7578   -9.4973   21.8984 O   0  0  0  0  0  0  0  0  0  0  0  0
    4.2472  -11.4166   21.7180 C   0  0  0  0  0  0  0  0  0  0  0  0
   -4.4488  -15.6619   20.7990 C   0  0  0  0  0  0  0  0  0  0  0  0
   -3.8237  -15.7198   19.4274 C   0  0  0  0  0  0  0  0  0  0  0  0
   -4.3449  -16.4681   18.3350 C   0  0  0  0  0  0  0  0  0  0  0  0
   -5.4865  -17.2122   18.2613 N   0  0  0  0  0  0  0  0  0  0  0  0
   -6.2262  -17.3443   19.3647 C   0  0  0  0  0  0  0  0  0  0  0  0
   -5.8586  -16.7141   20.5604 C   0  0  0  0  0  0  0  0  0  0  0  0
   -7.1125  -17.6454   22.0673 Br  0  0  0  0  0  0  0  0  0  0  0  0
   -2.7245  -15.3268   24.1655 H   0  0  0  0  0  0  0  0  0  0  0  0
   -2.7242  -13.5650   24.0836 H   0  0  0  0  0  0  0  0  0  0  0  0
   -4.1512  -14.5355   23.9572 H   0  0  0  0  0  0  0  0  0  0  0  0
   -4.2920  -13.7221   22.3294 H   0  0  0  0  0  0  0  0  0  0  0  0
   -1.5166  -13.7180   22.7017 H   0  0  0  0  0  0  0  0  0  0  0  0
   -1.0442  -14.3031   20.8412 H   0  0  0  0  0  0  0  0  0  0  0  0
   -0.0724  -12.0061   23.0176 H   0  0  0  0  0  0  0  0  0  0  0  0
    3.6598   -8.7089   23.4318 H   0  0  0  0  0  0  0  0  0  0  0  0
    4.2231  -11.4456   20.6267 H   0  0  0  0  0  0  0  0  0  0  0  0
    4.8625  -12.2116   22.1431 H   0  0  0  0  0  0  0  0  0  0  0  0
   -2.9274  -15.1530   19.1675 H   0  0  0  0  0  0  0  0  0  0  0  0
   -3.7953  -16.4464   17.3911 H   0  0  0  0  0  0  0  0  0  0  0  0
   -7.0786  -18.0083   19.2820 H   0  0  0  0  0  0  0  0  0  0  0  0
  1  2  1  0
  2  3  1  0
  3  4  1  0
  4  5  1  0
  5  6  2  0
  5  7  1  0
  7  8  2  0
  8  9  1  0
  9 10  1  0
 10 11  2  0
 10 12  1  0
  2 13  1  0
 13 14  2  0
 14 15  1  0
 15 16  2  0
 16 17  1  0
 17 18  2  0
 18 19  1  0
 12  7  1  0
 18 13  1  0
  1 20  1  0
  1 21  1  0
  1 22  1  0
  2 23  1  0
  3 24  1  0
  3 25  1  0
  4 26  1  0
  9 27  1  0
 12 28  1  0
 12 29  1  0
 14 30  1  0
 15 31  1  0
 17 32  1  0
M  END
>  <Energy>  (463) 
598.31959234976046

>  <compound_id>  (463) 
17386

>  <target_id>  (463) 
1

>  <reference_id>  (463) 
49

>  <inspiration_ids>  (463) 
[49, 98]

>  <energy_score>  (463) 
501.71822380714684

>  <distance_score>  (463) 
14.934159147215079

>  <path>  (463) 
/opt/xchem-fragalysis-2/maxwin/BulkDock/SCRATCH/511014/C17386-P49/C17386-P49.minimised.mol

>  <scratch_subdir>  (463) 
/opt/xchem-fragalysis-2/maxwin/BulkDock/SCRATCH/511014/C17386-P49

>  <fragmenstein_runtime>  (463) 
20.833571910858154

>  <fragmenstein_outcome>  (463) 
too moved

>  <fragmenstein_mode>  (463) 
expansion

>  <fragmenstein_error>  (463) 


$$$$
C17386-P98
     RDKit          3D

 32 33  0  0  0  0  0  0  0  0999 V2000
   -2.4590  -17.4721   26.9344 C   0  0  0  0  0  0  0  0  0  0  0  0
   -2.5884  -17.8374   25.4422 C   0  0  0  0  0  0  0  0  0  0  0  0
   -2.2053  -15.8827   24.6464 C   0  0  0  0  0  0  0  0  0  0  0  0
   -0.9613  -14.3284   24.5341 N   0  0  0  0  0  0  0  0  0  0  0  0
    0.7707  -14.1508   23.8620 C   0  0  0  0  0  0  0  0  0  0  0  0
    1.4052  -14.9920   23.2810 O   0  0  0  0  0  0  0  0  0  0  0  0
    1.8387  -12.6406   24.0218 C   0  0  0  0  0  0  0  0  0  0  0  0
    1.8221  -11.8313   22.9732 N   0  0  0  0  0  0  0  0  0  0  0  0
    3.2761  -11.0735   22.7223 N   0  0  0  0  0  0  0  0  0  0  0  0
    4.1180  -11.4394   23.6716 C   0  0  0  0  0  0  0  0  0  0  0  0
    5.0817  -10.8411   24.1119 O   0  0  0  0  0  0  0  0  0  0  0  0
    3.2820  -12.7018   24.0152 C   0  0  0  0  0  0  0  0  0  0  0  0
   -3.7024  -19.6221   24.9789 C   0  0  0  0  0  0  0  0  0  0  0  0
   -3.0223  -20.7252   23.8835 C   0  0  0  0  0  0  0  0  0  0  0  0
   -3.6463  -21.9698   23.5667 C   0  0  0  0  0  0  0  0  0  0  0  0
   -4.7755  -22.4450   24.1839 N   0  0  0  0  0  0  0  0  0  0  0  0
   -5.4555  -21.6476   25.0694 C   0  0  0  0  0  0  0  0  0  0  0  0
   -5.1980  -20.2458   25.2804 C   0  0  0  0  0  0  0  0  0  0  0  0
   -6.8697  -19.7739   24.0616 Br  0  0  0  0  0  0  0  0  0  0  0  0
   -1.4750  -17.8146   27.2769 H   0  0  0  0  0  0  0  0  0  0  0  0
   -3.2609  -17.8640   27.4761 H   0  0  0  0  0  0  0  0  0  0  0  0
   -2.4785  -16.4262   27.2164 H   0  0  0  0  0  0  0  0  0  0  0  0
   -1.6925  -18.3810   25.6266 H   0  0  0  0  0  0  0  0  0  0  0  0
   -2.6022  -15.3498   25.5005 H   0  0  0  0  0  0  0  0  0  0  0  0
   -3.0657  -15.5503   24.0439 H   0  0  0  0  0  0  0  0  0  0  0  0
   -1.2163  -13.4972   25.0461 H   0  0  0  0  0  0  0  0  0  0  0  0
    3.1988  -10.1173   22.3570 H   0  0  0  0  0  0  0  0  0  0  0  0
    2.8532  -11.8435   24.4698 H   0  0  0  0  0  0  0  0  0  0  0  0
    3.6316  -13.5330   24.6254 H   0  0  0  0  0  0  0  0  0  0  0  0
   -2.0549  -20.5270   23.4486 H   0  0  0  0  0  0  0  0  0  0  0  0
   -3.1950  -22.6482   22.8476 H   0  0  0  0  0  0  0  0  0  0  0  0
   -6.3573  -22.1130   25.4635 H   0  0  0  0  0  0  0  0  0  0  0  0
  1  2  1  0
  2  3  1  0
  3  4  1  0
  4  5  1  0
  5  6  2  0
  5  7  1  0
  7  8  2  0
  8  9  1  0
  9 10  1  0
 10 11  2  0
 10 12  1  0
  2 13  1  0
 13 14  2  0
 14 15  1  0
 15 16  2  0
 16 17  1  0
 17 18  2  0
 18 19  1  0
 12  7  1  0
 18 13  1  0
  1 20  1  0
  1 21  1  0
  1 22  1  0
  2 23  1  0
  3 24  1  0
  3 25  1  0
  4 26  1  0
  9 27  1  0
 12 28  1  0
 12 29  1  0
 14 30  1  0
 15 31  1  0
 17 32  1  0
M  END
>  <Energy>  (464) 
842.1045187163727

>  <compound_id>  (464) 
17386

>  <target_id>  (464) 
1

>  <reference_id>  (464) 
98

>  <inspiration_ids>  (464) 
[49, 98]

>  <energy_score>  (464) 
745.5031501737592

>  <distance_score>  (464) 
14.236595080818075

>  <path>  (464) 
/opt/xchem-fragalysis-2/maxwin/BulkDock/SCRATCH/511014/C17386-P98/C17386-P98.minimised.mol

>  <scratch_subdir>  (464) 
/opt/xchem-fragalysis-2/maxwin/BulkDock/SCRATCH/511014/C17386-P98

>  <fragmenstein_runtime>  (464) 
25.811417818069458

>  <fragmenstein_outcome>  (464) 
too moved

>  <fragmenstein_mode>  (464) 
expansion

>  <fragmenstein_error>  (464) 


$$$$
C17380-P49
     RDKit          3D

 26 27  0  0  0  0  0  0  0  0999 V2000
    1.2028  -11.9020   18.1190 O   0  0  0  0  0  0  0  0  0  0  0  0
    0.3272  -12.7412   18.2728 C   0  0  0  0  0  0  0  0  0  0  0  0
   -1.1552  -12.6541   17.9670 C   0  0  0  0  0  0  0  0  0  0  0  0
   -1.6611  -14.0401   18.4057 C   0  0  0  0  0  0  0  0  0  0  0  0
   -3.1756  -14.4443   18.1982 C   0  0  0  0  0  0  0  0  0  0  0  0
   -3.6768  -13.7863   17.3267 O   0  0  0  0  0  0  0  0  0  0  0  0
   -3.7420  -15.5035   19.0400 N   0  0  0  0  0  0  0  0  0  0  0  0
   -5.0896  -16.1659   19.0126 C   0  0  0  0  0  0  0  0  0  0  0  0
   -5.7480  -16.9260   20.2282 C   0  0  0  0  0  0  0  0  0  0  0  0
   -6.7805  -16.3522   20.9949 C   0  0  0  0  0  0  0  0  0  0  0  0
   -7.4264  -17.0920   22.0217 C   0  0  0  0  0  0  0  0  0  0  0  0
   -7.0347  -18.3939   22.2879 C   0  0  0  0  0  0  0  0  0  0  0  0
   -7.5607  -19.0952   23.3088 F   0  0  0  0  0  0  0  0  0  0  0  0
   -6.0616  -18.9259   21.4670 C   0  0  0  0  0  0  0  0  0  0  0  0
   -5.4324  -18.2373   20.4481 N   0  0  0  0  0  0  0  0  0  0  0  0
   -0.6851  -14.7923   18.8375 N   0  0  0  0  0  0  0  0  0  0  0  0
    0.4784  -14.0284   18.7704 N   0  0  0  0  0  0  0  0  0  0  0  0
   -1.3096  -12.5200   16.8944 H   0  0  0  0  0  0  0  0  0  0  0  0
   -1.6316  -11.8667   18.5514 H   0  0  0  0  0  0  0  0  0  0  0  0
   -3.0474  -15.7851   19.7348 H   0  0  0  0  0  0  0  0  0  0  0  0
   -5.7954  -15.4004   18.6683 H   0  0  0  0  0  0  0  0  0  0  0  0
   -5.0246  -16.8955   18.1960 H   0  0  0  0  0  0  0  0  0  0  0  0
   -7.1012  -15.3326   20.7936 H   0  0  0  0  0  0  0  0  0  0  0  0
   -8.2183  -16.6385   22.6102 H   0  0  0  0  0  0  0  0  0  0  0  0
   -5.7225  -19.9482   21.6055 H   0  0  0  0  0  0  0  0  0  0  0  0
    1.3696  -14.4218   19.0478 H   0  0  0  0  0  0  0  0  0  0  0  0
  1  2  2  0
  2  3  1  0
  3  4  1  0
  4  5  1  0
  5  6  2  0
  5  7  1  0
  7  8  1  0
  8  9  1  0
  9 10  2  0
 10 11  1  0
 11 12  2  0
 12 13  1  0
 12 14  1  0
 14 15  2  0
  4 16  2  0
 16 17  1  0
 17  2  1  0
 15  9  1  0
  3 18  1  0
  3 19  1  0
  7 20  1  0
  8 21  1  0
  8 22  1  0
 10 23  1  0
 11 24  1  0
 14 25  1  0
 17 26  1  0
M  END
>  <Energy>  (465) 
77.866149370943575

>  <compound_id>  (465) 
17380

>  <target_id>  (465) 
1

>  <reference_id>  (465) 
49

>  <inspiration_ids>  (465) 
[49, 98]

>  <energy_score>  (465) 
1.002941828984035

>  <distance_score>  (465) 
16.19274415374819

>  <path>  (465) 
/opt/xchem-fragalysis-2/maxwin/BulkDock/SCRATCH/511014/C17380-P49/C17380-P49.minimised.mol

>  <scratch_subdir>  (465) 
/opt/xchem-fragalysis-2/maxwin/BulkDock/SCRATCH/511014/C17380-P49

>  <fragmenstein_runtime>  (465) 
21.640490293502808

>  <fragmenstein_outcome>  (465) 
too moved

>  <fragmenstein_mode>  (465) 
expansion

>  <fragmenstein_error>  (465) 


$$$$
C17380-P98
     RDKit          3D

 26 27  0  0  0  0  0  0  0  0999 V2000
    3.0051   -7.5724   19.4579 O   0  0  0  0  0  0  0  0  0  0  0  0
    1.8921   -7.9006   19.8422 C   0  0  0  0  0  0  0  0  0  0  0  0
    1.1442   -7.3971   21.0386 C   0  0  0  0  0  0  0  0  0  0  0  0
   -0.0993   -8.2979   21.0461 C   0  0  0  0  0  0  0  0  0  0  0  0
   -0.9656   -8.2696   22.3142 C   0  0  0  0  0  0  0  0  0  0  0  0
   -0.7621   -7.2545   22.9280 O   0  0  0  0  0  0  0  0  0  0  0  0
   -1.7928   -9.4505   22.6530 N   0  0  0  0  0  0  0  0  0  0  0  0
   -2.6845   -9.8548   24.1398 C   0  0  0  0  0  0  0  0  0  0  0  0
   -2.5925  -11.6066   25.2752 C   0  0  0  0  0  0  0  0  0  0  0  0
   -1.8438  -13.1001   25.2471 C   0  0  0  0  0  0  0  0  0  0  0  0
   -2.2125  -14.4449   25.3293 C   0  0  0  0  0  0  0  0  0  0  0  0
   -2.7650  -14.2750   26.4386 C   0  0  0  0  0  0  0  0  0  0  0  0
   -2.4052  -15.1094   27.4844 F   0  0  0  0  0  0  0  0  0  0  0  0
   -3.4491  -12.8166   26.5840 C   0  0  0  0  0  0  0  0  0  0  0  0
   -3.6415  -12.0929   25.5402 N   0  0  0  0  0  0  0  0  0  0  0  0
   -0.1467   -9.0893   20.0143 N   0  0  0  0  0  0  0  0  0  0  0  0
    1.0132   -8.8217   19.2747 N   0  0  0  0  0  0  0  0  0  0  0  0
    0.8554   -6.3528   20.9038 H   0  0  0  0  0  0  0  0  0  0  0  0
    1.7356   -7.5476   21.9437 H   0  0  0  0  0  0  0  0  0  0  0  0
   -1.8008  -10.0931   21.8564 H   0  0  0  0  0  0  0  0  0  0  0  0
   -3.6283   -9.8982   23.6127 H   0  0  0  0  0  0  0  0  0  0  0  0
   -2.4457   -9.0621   24.8655 H   0  0  0  0  0  0  0  0  0  0  0  0
   -0.8254  -13.1846   25.6320 H   0  0  0  0  0  0  0  0  0  0  0  0
   -1.8241  -15.2195   24.7295 H   0  0  0  0  0  0  0  0  0  0  0  0
   -3.9228  -12.3031   27.4434 H   0  0  0  0  0  0  0  0  0  0  0  0
    1.2382   -9.3854   18.4624 H   0  0  0  0  0  0  0  0  0  0  0  0
  1  2  2  0
  2  3  1  0
  3  4  1  0
  4  5  1  0
  5  6  2  0
  5  7  1  0
  7  8  1  0
  8  9  1  0
  9 10  2  0
 10 11  1  0
 11 12  2  0
 12 13  1  0
 12 14  1  0
 14 15  2  0
  4 16  2  0
 16 17  1  0
 17  2  1  0
 15  9  1  0
  3 18  1  0
  3 19  1  0
  7 20  1  0
  8 21  1  0
  8 22  1  0
 10 23  1  0
 11 24  1  0
 14 25  1  0
 17 26  1  0
M  END
>  <Energy>  (466) 
425.0950817435031

>  <compound_id>  (466) 
17380

>  <target_id>  (466) 
1

>  <reference_id>  (466) 
98

>  <inspiration_ids>  (466) 
[49, 98]

>  <energy_score>  (466) 
348.231874201541

>  <distance_score>  (466) 
14.829916484435952

>  <path>  (466) 
/opt/xchem-fragalysis-2/maxwin/BulkDock/SCRATCH/511014/C17380-P98/C17380-P98.minimised.mol

>  <scratch_subdir>  (466) 
/opt/xchem-fragalysis-2/maxwin/BulkDock/SCRATCH/511014/C17380-P98

>  <fragmenstein_runtime>  (466) 
13.960647583007812

>  <fragmenstein_outcome>  (466) 
too moved

>  <fragmenstein_mode>  (466) 
expansion

>  <fragmenstein_error>  (466) 


$$$$
C17393-P46
     RDKit          3D

 58 59  0  0  0  0  0  0  0  0999 V2000
   -2.1507  -16.9533   17.3187 C   0  0  0  0  0  0  0  0  0  0  0  0
   -1.5641  -18.0444   18.2573 C   0  0  0  0  0  0  0  0  0  0  0  0
   -1.7222  -17.4437   19.6561 C   0  0  0  0  0  0  0  0  0  0  0  0
   -2.5412  -19.3040   18.1754 C   0  0  0  0  0  0  0  0  0  0  0  0
   -2.9319  -19.8012   19.1917 O   0  0  0  0  0  0  0  0  0  0  0  0
   -2.8757  -19.5874   16.7996 N   0  0  0  0  0  0  0  0  0  0  0  0
   -3.8474  -20.4842   16.2280 C   0  0  0  0  0  0  0  0  0  0  0  0
   -4.4750  -21.4944   17.1619 C   0  0  0  0  0  0  0  0  0  0  0  0
   -5.6464  -20.9705   18.0298 C   0  0  0  0  0  0  0  0  0  0  0  0
   -6.1839  -22.1008   18.9954 C   0  0  0  0  0  0  0  0  0  0  0  0
   -7.3047  -21.6866   19.9985 C   0  0  0  0  0  0  0  0  0  0  0  0
   -7.8377  -22.8239   20.9667 C   0  0  0  0  0  0  0  0  0  0  0  0
   -9.1504  -22.4233   21.6737 C   0  0  0  0  0  0  0  0  0  0  0  0
   -9.6534  -23.4567   22.6868 C   0  0  0  0  0  0  0  0  0  0  0  0
   -8.6525  -23.7606   23.7042 N   0  0  0  0  0  0  0  0  0  0  0  0
   -7.4034  -24.2069   23.0842 C   0  0  0  0  0  0  0  0  0  0  0  0
   -6.8322  -23.2164   22.0553 C   0  0  0  0  0  0  0  0  0  0  0  0
   -0.0609  -18.3792   18.0728 C   0  0  0  0  0  0  0  0  0  0  0  0
    0.4416  -19.6337   18.0447 C   0  0  0  0  0  0  0  0  0  0  0  0
    1.8694  -19.9661   17.7049 C   0  0  0  0  0  0  0  0  0  0  0  0
    2.4673  -18.8819   16.9458 N   0  0  0  0  0  0  0  0  0  0  0  0
    2.4149  -17.6460   17.7105 C   0  0  0  0  0  0  0  0  0  0  0  0
    0.9759  -17.2516   18.1172 C   0  0  0  0  0  0  0  0  0  0  0  0
   -1.6581  -15.9846   17.4504 H   0  0  0  0  0  0  0  0  0  0  0  0
   -2.1658  -17.2043   16.2615 H   0  0  0  0  0  0  0  0  0  0  0  0
   -3.2157  -16.8301   17.5480 H   0  0  0  0  0  0  0  0  0  0  0  0
   -1.1550  -16.5215   19.7665 H   0  0  0  0  0  0  0  0  0  0  0  0
   -2.7713  -17.2079   19.8607 H   0  0  0  0  0  0  0  0  0  0  0  0
   -1.3779  -18.1187   20.4332 H   0  0  0  0  0  0  0  0  0  0  0  0
   -2.2928  -19.0296   16.1982 H   0  0  0  0  0  0  0  0  0  0  0  0
   -3.3198  -21.0145   15.4273 H   0  0  0  0  0  0  0  0  0  0  0  0
   -4.6134  -19.8661   15.7478 H   0  0  0  0  0  0  0  0  0  0  0  0
   -4.8753  -22.3136   16.5500 H   0  0  0  0  0  0  0  0  0  0  0  0
   -3.7090  -21.9436   17.8054 H   0  0  0  0  0  0  0  0  0  0  0  0
   -5.3382  -20.1104   18.6303 H   0  0  0  0  0  0  0  0  0  0  0  0
   -6.4672  -20.6387   17.3835 H   0  0  0  0  0  0  0  0  0  0  0  0
   -5.3380  -22.4968   19.5619 H   0  0  0  0  0  0  0  0  0  0  0  0
   -6.5616  -22.9257   18.3786 H   0  0  0  0  0  0  0  0  0  0  0  0
   -8.1521  -21.3162   19.4084 H   0  0  0  0  0  0  0  0  0  0  0  0
   -6.9461  -20.8442   20.6026 H   0  0  0  0  0  0  0  0  0  0  0  0
   -8.0470  -23.7087   20.3507 H   0  0  0  0  0  0  0  0  0  0  0  0
   -9.9309  -22.2451   20.9247 H   0  0  0  0  0  0  0  0  0  0  0  0
   -8.9832  -21.4848   22.1961 H   0  0  0  0  0  0  0  0  0  0  0  0
  -10.5508  -23.0670   23.1796 H   0  0  0  0  0  0  0  0  0  0  0  0
   -9.9479  -24.3751   22.1643 H   0  0  0  0  0  0  0  0  0  0  0  0
   -9.0012  -24.4965   24.3163 H   0  0  0  0  0  0  0  0  0  0  0  0
   -6.6580  -24.3715   23.8702 H   0  0  0  0  0  0  0  0  0  0  0  0
   -7.5652  -25.1777   22.5988 H   0  0  0  0  0  0  0  0  0  0  0  0
   -5.9577  -23.6767   21.5849 H   0  0  0  0  0  0  0  0  0  0  0  0
   -6.4890  -22.3069   22.5537 H   0  0  0  0  0  0  0  0  0  0  0  0
   -0.1951  -20.4982   18.2264 H   0  0  0  0  0  0  0  0  0  0  0  0
    1.8811  -20.8688   17.0846 H   0  0  0  0  0  0  0  0  0  0  0  0
    2.4340  -20.1891   18.6174 H   0  0  0  0  0  0  0  0  0  0  0  0
    3.4267  -19.1088   16.6925 H   0  0  0  0  0  0  0  0  0  0  0  0
    2.8621  -16.8341   17.1286 H   0  0  0  0  0  0  0  0  0  0  0  0
    3.0335  -17.7430   18.6125 H   0  0  0  0  0  0  0  0  0  0  0  0
    0.6654  -16.3842   17.5361 H   0  0  0  0  0  0  0  0  0  0  0  0
    1.0247  -16.8922   19.1533 H   0  0  0  0  0  0  0  0  0  0  0  0
  1  2  1  0
  2  3  1  0
  2  4  1  0
  4  5  2  0
  4  6  1  0
  6  7  1  0
  7  8  1  0
  8  9  1  0
  9 10  1  0
 10 11  1  0
 11 12  1  0
 12 13  1  0
 13 14  1  0
 14 15  1  0
 15 16  1  0
 16 17  1  0
  2 18  1  0
 18 19  2  0
 19 20  1  0
 20 21  1  0
 21 22  1  0
 22 23  1  0
 17 12  1  0
 23 18  1  0
  1 24  1  0
  1 25  1  0
  1 26  1  0
  3 27  1  0
  3 28  1  0
  3 29  1  0
  6 30  1  0
  7 31  1  0
  7 32  1  0
  8 33  1  0
  8 34  1  0
  9 35  1  0
  9 36  1  0
 10 37  1  0
 10 38  1  0
 11 39  1  0
 11 40  1  0
 12 41  1  0
 13 42  1  0
 13 43  1  0
 14 44  1  0
 14 45  1  0
 15 46  1  0
 16 47  1  0
 16 48  1  0
 17 49  1  0
 17 50  1  0
 19 51  1  0
 20 52  1  0
 20 53  1  0
 21 54  1  0
 22 55  1  0
 22 56  1  0
 23 57  1  0
 23 58  1  0
M  END
>  <Energy>  (467) 
50.773956724792697

>  <compound_id>  (467) 
17393

>  <target_id>  (467) 
1

>  <reference_id>  (467) 
46

>  <inspiration_ids>  (467) 
[46, 85]

>  <energy_score>  (467) 
-50.08658636254768

>  <distance_score>  (467) 
12.105014302788353

>  <path>  (467) 
/opt/xchem-fragalysis-2/maxwin/BulkDock/SCRATCH/511014/C17393-P46/C17393-P46.minimised.mol

>  <scratch_subdir>  (467) 
/opt/xchem-fragalysis-2/maxwin/BulkDock/SCRATCH/511014/C17393-P46

>  <fragmenstein_runtime>  (467) 
107.16957378387451

>  <fragmenstein_outcome>  (467) 
too moved

>  <fragmenstein_mode>  (467) 
expansion

>  <fragmenstein_error>  (467) 


$$$$
C17393-P85
     RDKit          3D

 58 59  0  0  0  0  0  0  0  0999 V2000
    5.1888  -20.3535   15.2688 C   0  0  0  0  0  0  0  0  0  0  0  0
    3.9199  -19.4972   15.0868 C   0  0  0  0  0  0  0  0  0  0  0  0
    4.3502  -18.0760   15.5560 C   0  0  0  0  0  0  0  0  0  0  0  0
    2.7194  -19.8818   16.1384 C   0  0  0  0  0  0  0  0  0  0  0  0
    2.0565  -18.9820   16.5834 O   0  0  0  0  0  0  0  0  0  0  0  0
    2.7138  -21.2935   16.4419 N   0  0  0  0  0  0  0  0  0  0  0  0
    1.9781  -22.0546   17.4450 C   0  0  0  0  0  0  0  0  0  0  0  0
    0.5331  -21.6520   17.8130 C   0  0  0  0  0  0  0  0  0  0  0  0
    0.0550  -22.4182   19.0721 C   0  0  0  0  0  0  0  0  0  0  0  0
   -1.3949  -22.1926   19.6383 C   0  0  0  0  0  0  0  0  0  0  0  0
   -1.7137  -23.1313   20.8606 C   0  0  0  0  0  0  0  0  0  0  0  0
   -3.0299  -22.8936   21.7065 C   0  0  0  0  0  0  0  0  0  0  0  0
   -4.3371  -23.2258   20.9608 C   0  0  0  0  0  0  0  0  0  0  0  0
   -5.5998  -23.1969   21.8468 C   0  0  0  0  0  0  0  0  0  0  0  0
   -5.4688  -24.0440   23.0352 N   0  0  0  0  0  0  0  0  0  0  0  0
   -4.3116  -23.6014   23.8036 C   0  0  0  0  0  0  0  0  0  0  0  0
   -3.0013  -23.7114   23.0202 C   0  0  0  0  0  0  0  0  0  0  0  0
    3.6073  -19.5433   13.5765 C   0  0  0  0  0  0  0  0  0  0  0  0
    2.7863  -20.4371   12.9951 C   0  0  0  0  0  0  0  0  0  0  0  0
    2.6188  -20.5976   11.5022 C   0  0  0  0  0  0  0  0  0  0  0  0
    3.6369  -19.9231   10.6916 N   0  0  0  0  0  0  0  0  0  0  0  0
    3.8304  -18.5723   11.2015 C   0  0  0  0  0  0  0  0  0  0  0  0
    4.3745  -18.6211   12.6392 C   0  0  0  0  0  0  0  0  0  0  0  0
    5.4245  -20.4862   16.3315 H   0  0  0  0  0  0  0  0  0  0  0  0
    5.0823  -21.3541   14.8333 H   0  0  0  0  0  0  0  0  0  0  0  0
    6.0672  -19.8984   14.7949 H   0  0  0  0  0  0  0  0  0  0  0  0
    4.5923  -18.0779   16.6268 H   0  0  0  0  0  0  0  0  0  0  0  0
    5.2427  -17.7087   15.0381 H   0  0  0  0  0  0  0  0  0  0  0  0
    3.5490  -17.3484   15.4181 H   0  0  0  0  0  0  0  0  0  0  0  0
    3.3500  -21.7679   15.8143 H   0  0  0  0  0  0  0  0  0  0  0  0
    1.9908  -23.0982   17.1105 H   0  0  0  0  0  0  0  0  0  0  0  0
    2.6001  -22.0031   18.3464 H   0  0  0  0  0  0  0  0  0  0  0  0
   -0.1357  -21.9422   17.0003 H   0  0  0  0  0  0  0  0  0  0  0  0
    0.4727  -20.5818   18.0156 H   0  0  0  0  0  0  0  0  0  0  0  0
    0.7561  -22.1985   19.8883 H   0  0  0  0  0  0  0  0  0  0  0  0
    0.1576  -23.4925   18.8678 H   0  0  0  0  0  0  0  0  0  0  0  0
   -1.4828  -21.1543   19.9667 H   0  0  0  0  0  0  0  0  0  0  0  0
   -2.1303  -22.3640   18.8454 H   0  0  0  0  0  0  0  0  0  0  0  0
   -0.8672  -23.0458   21.5552 H   0  0  0  0  0  0  0  0  0  0  0  0
   -1.7128  -24.1689   20.5029 H   0  0  0  0  0  0  0  0  0  0  0  0
   -3.0501  -21.8395   21.9811 H   0  0  0  0  0  0  0  0  0  0  0  0
   -4.4693  -22.5247   20.1282 H   0  0  0  0  0  0  0  0  0  0  0  0
   -4.2476  -24.2252   20.5148 H   0  0  0  0  0  0  0  0  0  0  0  0
   -5.8437  -22.1724   22.1373 H   0  0  0  0  0  0  0  0  0  0  0  0
   -6.4522  -23.5544   21.2578 H   0  0  0  0  0  0  0  0  0  0  0  0
   -5.3224  -25.0065   22.7331 H   0  0  0  0  0  0  0  0  0  0  0  0
   -4.4634  -22.5598   24.0928 H   0  0  0  0  0  0  0  0  0  0  0  0
   -4.2440  -24.2057   24.7138 H   0  0  0  0  0  0  0  0  0  0  0  0
   -2.8037  -24.7665   22.7902 H   0  0  0  0  0  0  0  0  0  0  0  0
   -2.1720  -23.3642   23.6472 H   0  0  0  0  0  0  0  0  0  0  0  0
    2.2189  -21.1358   13.6005 H   0  0  0  0  0  0  0  0  0  0  0  0
    2.6744  -21.6618   11.2530 H   0  0  0  0  0  0  0  0  0  0  0  0
    1.6241  -20.2353   11.2196 H   0  0  0  0  0  0  0  0  0  0  0  0
    3.2863  -19.8745    9.7354 H   0  0  0  0  0  0  0  0  0  0  0  0
    4.5509  -18.0479   10.5642 H   0  0  0  0  0  0  0  0  0  0  0  0
    2.8938  -18.0045   11.1498 H   0  0  0  0  0  0  0  0  0  0  0  0
    4.3648  -17.5996   13.0173 H   0  0  0  0  0  0  0  0  0  0  0  0
    5.4218  -18.9479   12.6163 H   0  0  0  0  0  0  0  0  0  0  0  0
  1  2  1  0
  2  3  1  0
  2  4  1  0
  4  5  2  0
  4  6  1  0
  6  7  1  0
  7  8  1  0
  8  9  1  0
  9 10  1  0
 10 11  1  0
 11 12  1  0
 12 13  1  0
 13 14  1  0
 14 15  1  0
 15 16  1  0
 16 17  1  0
  2 18  1  0
 18 19  2  0
 19 20  1  0
 20 21  1  0
 21 22  1  0
 22 23  1  0
 17 12  1  0
 23 18  1  0
  1 24  1  0
  1 25  1  0
  1 26  1  0
  3 27  1  0
  3 28  1  0
  3 29  1  0
  6 30  1  0
  7 31  1  0
  7 32  1  0
  8 33  1  0
  8 34  1  0
  9 35  1  0
  9 36  1  0
 10 37  1  0
 10 38  1  0
 11 39  1  0
 11 40  1  0
 12 41  1  0
 13 42  1  0
 13 43  1  0
 14 44  1  0
 14 45  1  0
 15 46  1  0
 16 47  1  0
 16 48  1  0
 17 49  1  0
 17 50  1  0
 19 51  1  0
 20 52  1  0
 20 53  1  0
 21 54  1  0
 22 55  1  0
 22 56  1  0
 23 57  1  0
 23 58  1  0
M  END
>  <Energy>  (468) 
52.036210333329457

>  <compound_id>  (468) 
17393

>  <target_id>  (468) 
1

>  <reference_id>  (468) 
85

>  <inspiration_ids>  (468) 
[46, 85]

>  <energy_score>  (468) 
-48.824332754011664

>  <distance_score>  (468) 
11.489788499712738

>  <path>  (468) 
/opt/xchem-fragalysis-2/maxwin/BulkDock/SCRATCH/511014/C17393-P85/C17393-P85.minimised.mol

>  <scratch_subdir>  (468) 
/opt/xchem-fragalysis-2/maxwin/BulkDock/SCRATCH/511014/C17393-P85

>  <fragmenstein_runtime>  (468) 
66.77179169654846

>  <fragmenstein_outcome>  (468) 
too moved

>  <fragmenstein_mode>  (468) 
expansion

>  <fragmenstein_error>  (468) 


$$$$
C17394-P46
     RDKit          3D

 46 47  0  0  0  0  0  0  0  0999 V2000
   -2.4312  -19.8905   16.5530 C   0  0  0  0  0  0  0  0  0  0  0  0
   -2.3859  -19.7474   18.0755 C   0  0  0  0  0  0  0  0  0  0  0  0
   -3.4128  -20.4575   18.8116 O   0  0  0  0  0  0  0  0  0  0  0  0
   -4.6077  -19.7965   18.9072 C   0  0  0  0  0  0  0  0  0  0  0  0
   -4.9577  -19.0375   18.0556 O   0  0  0  0  0  0  0  0  0  0  0  0
   -5.1947  -20.1216   20.1619 N   0  0  0  0  0  0  0  0  0  0  0  0
   -6.3684  -19.5564   20.8578 C   0  0  0  0  0  0  0  0  0  0  0  0
   -6.4192  -18.1275   20.5361 C   0  0  0  0  0  0  0  0  0  0  0  0
   -7.1383  -17.8067   21.7563 C   0  0  0  0  0  0  0  0  0  0  0  0
   -5.9928  -18.1640   22.7780 C   0  0  0  0  0  0  0  0  0  0  0  0
   -6.2263  -18.9555   23.9284 N   0  0  0  0  0  0  0  0  0  0  0  0
   -5.0281  -19.8909   25.1062 C   0  0  0  0  0  0  0  0  0  0  0  0
   -3.8015  -20.0237   24.9755 O   0  0  0  0  0  0  0  0  0  0  0  0
   -5.6147  -20.6342   26.8890 C   0  0  0  0  0  0  0  0  0  0  0  0
   -7.5462  -21.2046   27.5170 C   0  0  0  0  0  0  0  0  0  0  0  0
   -9.2574  -20.9210   27.7314 C   0  0  0  0  0  0  0  0  0  0  0  0
  -10.5779  -21.5980   28.4938 C   0  0  0  0  0  0  0  0  0  0  0  0
  -10.5483  -22.9470   28.7905 N   0  0  0  0  0  0  0  0  0  0  0  0
   -9.3668  -23.4159   28.1639 C   0  0  0  0  0  0  0  0  0  0  0  0
   -7.7337  -22.7215   27.5496 C   0  0  0  0  0  0  0  0  0  0  0  0
   -6.8434  -20.0040   22.6977 C   0  0  0  0  0  0  0  0  0  0  0  0
   -1.5745  -19.3897   16.0932 H   0  0  0  0  0  0  0  0  0  0  0  0
   -2.4181  -20.9489   16.2743 H   0  0  0  0  0  0  0  0  0  0  0  0
   -3.3486  -19.4625   16.1400 H   0  0  0  0  0  0  0  0  0  0  0  0
   -2.4028  -18.6870   18.3575 H   0  0  0  0  0  0  0  0  0  0  0  0
   -1.4310  -20.1463   18.4352 H   0  0  0  0  0  0  0  0  0  0  0  0
   -4.5763  -20.7486   20.6623 H   0  0  0  0  0  0  0  0  0  0  0  0
   -7.2359  -19.7671   20.1997 H   0  0  0  0  0  0  0  0  0  0  0  0
   -6.8378  -17.9424   19.5501 H   0  0  0  0  0  0  0  0  0  0  0  0
   -5.4601  -17.6445   20.4256 H   0  0  0  0  0  0  0  0  0  0  0  0
   -8.0368  -18.3196   21.9846 H   0  0  0  0  0  0  0  0  0  0  0  0
   -7.5550  -16.8279   21.6197 H   0  0  0  0  0  0  0  0  0  0  0  0
   -5.1884  -17.6414   22.3731 H   0  0  0  0  0  0  0  0  0  0  0  0
   -6.3941  -17.4057   23.4204 H   0  0  0  0  0  0  0  0  0  0  0  0
   -5.1194  -21.6398   26.8847 H   0  0  0  0  0  0  0  0  0  0  0  0
   -4.8922  -20.0590   27.4327 H   0  0  0  0  0  0  0  0  0  0  0  0
   -9.8878  -20.6140   26.9616 H   0  0  0  0  0  0  0  0  0  0  0  0
  -11.4592  -21.5077   27.8425 H   0  0  0  0  0  0  0  0  0  0  0  0
  -10.7861  -21.0581   29.4229 H   0  0  0  0  0  0  0  0  0  0  0  0
  -11.3794  -23.4475   28.4835 H   0  0  0  0  0  0  0  0  0  0  0  0
   -9.8462  -23.7950   27.2367 H   0  0  0  0  0  0  0  0  0  0  0  0
   -9.1449  -24.2247   28.8884 H   0  0  0  0  0  0  0  0  0  0  0  0
   -7.6557  -23.0746   26.5231 H   0  0  0  0  0  0  0  0  0  0  0  0
   -6.7615  -23.1438   27.7950 H   0  0  0  0  0  0  0  0  0  0  0  0
   -6.3037  -20.9212   22.8843 H   0  0  0  0  0  0  0  0  0  0  0  0
   -7.9092  -20.0403   22.6879 H   0  0  0  0  0  0  0  0  0  0  0  0
  1  2  1  0
  2  3  1  0
  3  4  1  0
  4  5  2  0
  4  6  1  0
  6  7  1  0
  7  8  1  0
  8  9  1  0
  9 10  1  0
 10 11  1  0
 11 12  1  0
 12 13  2  0
 12 14  1  0
 14 15  1  0
 15 16  2  0
 16 17  1  0
 17 18  1  0
 18 19  1  0
 19 20  1  0
 11 21  1  0
 21  7  1  0
 20 15  1  0
  1 22  1  0
  1 23  1  0
  1 24  1  0
  2 25  1  0
  2 26  1  0
  6 27  1  0
  7 28  1  0
  8 29  1  0
  8 30  1  0
  9 31  1  0
  9 32  1  0
 10 33  1  0
 10 34  1  0
 14 35  1  0
 14 36  1  0
 16 37  1  0
 17 38  1  0
 17 39  1  0
 18 40  1  0
 19 41  1  0
 19 42  1  0
 20 43  1  0
 20 44  1  0
 21 45  1  0
 21 46  1  0
M  END
>  <Energy>  (469) 
657.95904950156091

>  <compound_id>  (469) 
17394

>  <target_id>  (469) 
1

>  <reference_id>  (469) 
46

>  <inspiration_ids>  (469) 
[46, 85]

>  <energy_score>  (469) 
634.6454354226162

>  <distance_score>  (469) 
11.60825663553612

>  <path>  (469) 
/opt/xchem-fragalysis-2/maxwin/BulkDock/SCRATCH/511014/C17394-P46/C17394-P46.minimised.mol

>  <scratch_subdir>  (469) 
/opt/xchem-fragalysis-2/maxwin/BulkDock/SCRATCH/511014/C17394-P46

>  <fragmenstein_runtime>  (469) 
32.37527084350586

>  <fragmenstein_outcome>  (469) 
too moved

>  <fragmenstein_mode>  (469) 
expansion

>  <fragmenstein_error>  (469) 


$$$$
C17394-P85
     RDKit          3D

 46 47  0  0  0  0  0  0  0  0999 V2000
   -5.2807  -17.9935   16.8297 C   0  0  0  0  0  0  0  0  0  0  0  0
   -5.9425  -18.8820   17.8995 C   0  0  0  0  0  0  0  0  0  0  0  0
   -6.3120  -18.1343   19.0841 O   0  0  0  0  0  0  0  0  0  0  0  0
   -6.2791  -18.7667   20.2997 C   0  0  0  0  0  0  0  0  0  0  0  0
   -5.7722  -19.8373   20.4200 O   0  0  0  0  0  0  0  0  0  0  0  0
   -6.9978  -17.9562   21.2421 N   0  0  0  0  0  0  0  0  0  0  0  0
   -7.4480  -18.2404   22.7067 C   0  0  0  0  0  0  0  0  0  0  0  0
   -6.7072  -17.4295   23.6609 C   0  0  0  0  0  0  0  0  0  0  0  0
   -7.1987  -15.3752   24.2626 C   0  0  0  0  0  0  0  0  0  0  0  0
   -8.5558  -15.4781   25.0679 C   0  0  0  0  0  0  0  0  0  0  0  0
   -9.0918  -16.5895   25.4646 N   0  0  0  0  0  0  0  0  0  0  0  0
   -8.9959  -17.4838   27.1568 C   0  0  0  0  0  0  0  0  0  0  0  0
   -8.2455  -16.9442   27.8880 O   0  0  0  0  0  0  0  0  0  0  0  0
   -9.6496  -19.2261   28.0458 C   0  0  0  0  0  0  0  0  0  0  0  0
  -10.7781  -20.8713   28.9053 C   0  0  0  0  0  0  0  0  0  0  0  0
  -11.4980  -21.2772   30.0361 C   0  0  0  0  0  0  0  0  0  0  0  0
  -12.4070  -22.4558   30.3168 C   0  0  0  0  0  0  0  0  0  0  0  0
  -12.1154  -23.6625   29.5803 N   0  0  0  0  0  0  0  0  0  0  0  0
  -11.9082  -23.3369   28.1887 C   0  0  0  0  0  0  0  0  0  0  0  0
  -11.0194  -22.1262   27.9589 C   0  0  0  0  0  0  0  0  0  0  0  0
   -7.9244  -16.9162   23.6152 C   0  0  0  0  0  0  0  0  0  0  0  0
   -4.4482  -17.4233   17.2409 H   0  0  0  0  0  0  0  0  0  0  0  0
   -6.0044  -17.2692   16.4432 H   0  0  0  0  0  0  0  0  0  0  0  0
   -4.9258  -18.6030   15.9939 H   0  0  0  0  0  0  0  0  0  0  0  0
   -6.8649  -19.3010   17.4833 H   0  0  0  0  0  0  0  0  0  0  0  0
   -5.2865  -19.7160   18.1396 H   0  0  0  0  0  0  0  0  0  0  0  0
   -7.2117  -17.0732   20.8180 H   0  0  0  0  0  0  0  0  0  0  0  0
   -7.6788  -19.2806   22.9310 H   0  0  0  0  0  0  0  0  0  0  0  0
   -5.9207  -17.6796   22.8833 H   0  0  0  0  0  0  0  0  0  0  0  0
   -6.5860  -18.3278   24.2928 H   0  0  0  0  0  0  0  0  0  0  0  0
   -6.6227  -14.5672   23.8068 H   0  0  0  0  0  0  0  0  0  0  0  0
   -7.0788  -15.0420   25.2802 H   0  0  0  0  0  0  0  0  0  0  0  0
   -8.9397  -14.7257   25.6757 H   0  0  0  0  0  0  0  0  0  0  0  0
   -8.2453  -15.5285   26.1016 H   0  0  0  0  0  0  0  0  0  0  0  0
   -8.9627  -18.6878   28.7623 H   0  0  0  0  0  0  0  0  0  0  0  0
   -8.8758  -19.9247   28.2545 H   0  0  0  0  0  0  0  0  0  0  0  0
  -11.4133  -20.8245   31.0169 H   0  0  0  0  0  0  0  0  0  0  0  0
  -12.3383  -22.7072   31.3829 H   0  0  0  0  0  0  0  0  0  0  0  0
  -13.4360  -22.1171   30.1730 H   0  0  0  0  0  0  0  0  0  0  0  0
  -12.9531  -24.2458   29.6245 H   0  0  0  0  0  0  0  0  0  0  0  0
  -12.8069  -23.1608   27.6059 H   0  0  0  0  0  0  0  0  0  0  0  0
  -11.4606  -24.2133   27.7002 H   0  0  0  0  0  0  0  0  0  0  0  0
  -11.3764  -21.7615   26.9994 H   0  0  0  0  0  0  0  0  0  0  0  0
  -10.0657  -22.6562   27.9981 H   0  0  0  0  0  0  0  0  0  0  0  0
   -8.6009  -17.4468   22.8810 H   0  0  0  0  0  0  0  0  0  0  0  0
   -8.1220  -16.4744   22.5456 H   0  0  0  0  0  0  0  0  0  0  0  0
  1  2  1  0
  2  3  1  0
  3  4  1  0
  4  5  2  0
  4  6  1  0
  6  7  1  0
  7  8  1  0
  8  9  1  0
  9 10  1  0
 10 11  1  0
 11 12  1  0
 12 13  2  0
 12 14  1  0
 14 15  1  0
 15 16  2  0
 16 17  1  0
 17 18  1  0
 18 19  1  0
 19 20  1  0
 11 21  1  0
 21  7  1  0
 20 15  1  0
  1 22  1  0
  1 23  1  0
  1 24  1  0
  2 25  1  0
  2 26  1  0
  6 27  1  0
  7 28  1  0
  8 29  1  0
  8 30  1  0
  9 31  1  0
  9 32  1  0
 10 33  1  0
 10 34  1  0
 14 35  1  0
 14 36  1  0
 16 37  1  0
 17 38  1  0
 17 39  1  0
 18 40  1  0
 19 41  1  0
 19 42  1  0
 20 43  1  0
 20 44  1  0
 21 45  1  0
 21 46  1  0
M  END
>  <Energy>  (470) 
1335.5748985216794

>  <compound_id>  (470) 
17394

>  <target_id>  (470) 
1

>  <reference_id>  (470) 
85

>  <inspiration_ids>  (470) 
[46, 85]

>  <energy_score>  (470) 
1312.2612844427485

>  <distance_score>  (470) 
10.922581134322472

>  <path>  (470) 
/opt/xchem-fragalysis-2/maxwin/BulkDock/SCRATCH/511014/C17394-P85/C17394-P85.minimised.mol

>  <scratch_subdir>  (470) 
/opt/xchem-fragalysis-2/maxwin/BulkDock/SCRATCH/511014/C17394-P85

>  <fragmenstein_runtime>  (470) 
17.398802757263184

>  <fragmenstein_outcome>  (470) 
too moved

>  <fragmenstein_mode>  (470) 
expansion

>  <fragmenstein_error>  (470) 


$$$$
C17400-P46
     RDKit          3D

 41 42  0  0  0  0  0  0  0  0999 V2000
  -11.8675  -23.0750   20.4609 O   0  0  0  0  0  0  0  0  0  0  0  0
  -11.2151  -22.5430   21.3217 C   0  0  0  0  0  0  0  0  0  0  0  0
  -11.9259  -21.9404   22.5398 C   0  0  0  0  0  0  0  0  0  0  0  0
  -12.4326  -23.0417   23.4645 C   0  0  0  0  0  0  0  0  0  0  0  0
  -11.6166  -23.8718   24.1446 C   0  0  0  0  0  0  0  0  0  0  0  0
  -12.0851  -24.8500   25.1823 C   0  0  0  0  0  0  0  0  0  0  0  0
  -13.4368  -24.5832   25.6523 N   0  0  0  0  0  0  0  0  0  0  0  0
  -14.3273  -24.4122   24.4949 C   0  0  0  0  0  0  0  0  0  0  0  0
  -13.9299  -23.2030   23.6185 C   0  0  0  0  0  0  0  0  0  0  0  0
   -9.7911  -22.4355   21.4820 N   0  0  0  0  0  0  0  0  0  0  0  0
   -8.6924  -23.0336   20.7093 C   0  0  0  0  0  0  0  0  0  0  0  0
   -7.3827  -22.9918   21.4932 C   0  0  0  0  0  0  0  0  0  0  0  0
   -6.9486  -21.5519   21.6214 C   0  0  0  0  0  0  0  0  0  0  0  0
   -7.7216  -20.7382   20.6004 C   0  0  0  0  0  0  0  0  0  0  0  0
   -7.3028  -19.2350   20.6211 C   0  0  0  0  0  0  0  0  0  0  0  0
   -6.4712  -18.7570   19.4019 C   0  0  0  0  0  0  0  0  0  0  0  0
   -5.4856  -19.5856   19.0056 F   0  0  0  0  0  0  0  0  0  0  0  0
   -7.3007  -18.5770   18.3545 F   0  0  0  0  0  0  0  0  0  0  0  0
   -5.8577  -17.5860   19.6058 F   0  0  0  0  0  0  0  0  0  0  0  0
   -9.2589  -21.1058   20.7794 C   0  0  0  0  0  0  0  0  0  0  0  0
  -12.7542  -21.3221   22.1752 H   0  0  0  0  0  0  0  0  0  0  0  0
  -11.2586  -21.2686   23.0897 H   0  0  0  0  0  0  0  0  0  0  0  0
  -10.5465  -23.8348   23.9711 H   0  0  0  0  0  0  0  0  0  0  0  0
  -12.0068  -25.8679   24.7864 H   0  0  0  0  0  0  0  0  0  0  0  0
  -11.4213  -24.7892   26.0508 H   0  0  0  0  0  0  0  0  0  0  0  0
  -13.3963  -23.6781   26.1259 H   0  0  0  0  0  0  0  0  0  0  0  0
  -14.3236  -25.3296   23.8918 H   0  0  0  0  0  0  0  0  0  0  0  0
  -15.3581  -24.2832   24.8427 H   0  0  0  0  0  0  0  0  0  0  0  0
  -14.3818  -23.3328   22.6275 H   0  0  0  0  0  0  0  0  0  0  0  0
  -14.3524  -22.2856   24.0377 H   0  0  0  0  0  0  0  0  0  0  0  0
   -8.9698  -24.1005   20.7079 H   0  0  0  0  0  0  0  0  0  0  0  0
   -8.6644  -22.8545   19.6205 H   0  0  0  0  0  0  0  0  0  0  0  0
   -6.6240  -23.5684   20.9513 H   0  0  0  0  0  0  0  0  0  0  0  0
   -7.4878  -23.4502   22.4833 H   0  0  0  0  0  0  0  0  0  0  0  0
   -7.1616  -21.1728   22.6138 H   0  0  0  0  0  0  0  0  0  0  0  0
   -5.8751  -21.4784   21.4623 H   0  0  0  0  0  0  0  0  0  0  0  0
   -7.4533  -21.0965   19.5986 H   0  0  0  0  0  0  0  0  0  0  0  0
   -8.2049  -18.6128   20.6612 H   0  0  0  0  0  0  0  0  0  0  0  0
   -6.7447  -19.0095   21.5342 H   0  0  0  0  0  0  0  0  0  0  0  0
   -9.7860  -20.9886   19.8175 H   0  0  0  0  0  0  0  0  0  0  0  0
   -9.6935  -20.3200   21.4145 H   0  0  0  0  0  0  0  0  0  0  0  0
  1  2  2  0
  2  3  1  0
  3  4  1  0
  4  5  2  0
  5  6  1  0
  6  7  1  0
  7  8  1  0
  8  9  1  0
  2 10  1  0
 10 11  1  0
 11 12  1  0
 12 13  1  0
 13 14  1  0
 14 15  1  0
 15 16  1  0
 16 17  1  0
 16 18  1  0
 16 19  1  0
 14 20  1  0
  9  4  1  0
 20 10  1  0
  3 21  1  0
  3 22  1  0
  5 23  1  0
  6 24  1  0
  6 25  1  0
  7 26  1  0
  8 27  1  0
  8 28  1  0
  9 29  1  0
  9 30  1  0
 11 31  1  0
 11 32  1  0
 12 33  1  0
 12 34  1  0
 13 35  1  0
 13 36  1  0
 14 37  1  0
 15 38  1  0
 15 39  1  0
 20 40  1  0
 20 41  1  0
M  END
>  <Energy>  (471) 
115.48770736555436

>  <compound_id>  (471) 
17400

>  <target_id>  (471) 
1

>  <reference_id>  (471) 
46

>  <inspiration_ids>  (471) 
[46, 85]

>  <energy_score>  (471) 
49.83915519986701

>  <distance_score>  (471) 
11.347086301211988

>  <path>  (471) 
/opt/xchem-fragalysis-2/maxwin/BulkDock/SCRATCH/511014/C17400-P46/C17400-P46.minimised.mol

>  <scratch_subdir>  (471) 
/opt/xchem-fragalysis-2/maxwin/BulkDock/SCRATCH/511014/C17400-P46

>  <fragmenstein_runtime>  (471) 
21.769135236740112

>  <fragmenstein_outcome>  (471) 
too moved

>  <fragmenstein_mode>  (471) 
expansion

>  <fragmenstein_error>  (471) 


$$$$
C17400-P85
     RDKit          3D

 41 42  0  0  0  0  0  0  0  0999 V2000
   -7.6266  -23.6675   29.4840 O   0  0  0  0  0  0  0  0  0  0  0  0
   -6.9317  -23.3940   28.6125 C   0  0  0  0  0  0  0  0  0  0  0  0
   -7.7874  -22.7012   27.4622 C   0  0  0  0  0  0  0  0  0  0  0  0
   -9.5005  -23.5347   27.6441 C   0  0  0  0  0  0  0  0  0  0  0  0
  -10.6573  -23.0290   28.2014 C   0  0  0  0  0  0  0  0  0  0  0  0
  -12.0389  -23.6151   28.2408 C   0  0  0  0  0  0  0  0  0  0  0  0
  -12.3157  -24.8515   27.5067 N   0  0  0  0  0  0  0  0  0  0  0  0
  -11.0615  -25.5617   27.3018 C   0  0  0  0  0  0  0  0  0  0  0  0
  -10.0627  -24.5788   26.6722 C   0  0  0  0  0  0  0  0  0  0  0  0
   -5.1535  -23.9563   28.6943 N   0  0  0  0  0  0  0  0  0  0  0  0
   -4.4435  -24.8550   29.7068 C   0  0  0  0  0  0  0  0  0  0  0  0
   -3.3315  -25.7073   29.1055 C   0  0  0  0  0  0  0  0  0  0  0  0
   -2.3070  -24.7855   28.4898 C   0  0  0  0  0  0  0  0  0  0  0  0
   -2.4440  -23.4669   29.2160 C   0  0  0  0  0  0  0  0  0  0  0  0
   -1.4701  -22.3533   28.6583 C   0  0  0  0  0  0  0  0  0  0  0  0
   -1.1803  -22.1046   27.1503 C   0  0  0  0  0  0  0  0  0  0  0  0
   -2.3015  -21.7662   26.4784 F   0  0  0  0  0  0  0  0  0  0  0  0
   -0.3471  -21.0232   27.0311 F   0  0  0  0  0  0  0  0  0  0  0  0
   -0.5551  -23.0987   26.5059 F   0  0  0  0  0  0  0  0  0  0  0  0
   -4.0372  -23.1066   29.3088 C   0  0  0  0  0  0  0  0  0  0  0  0
   -7.4992  -22.9610   26.4577 H   0  0  0  0  0  0  0  0  0  0  0  0
   -7.9828  -21.6589   27.5857 H   0  0  0  0  0  0  0  0  0  0  0  0
  -10.7572  -22.0631   28.6605 H   0  0  0  0  0  0  0  0  0  0  0  0
  -12.6547  -22.8207   27.8091 H   0  0  0  0  0  0  0  0  0  0  0  0
  -12.3105  -23.7574   29.2926 H   0  0  0  0  0  0  0  0  0  0  0  0
  -12.6839  -24.5648   26.6004 H   0  0  0  0  0  0  0  0  0  0  0  0
  -10.7355  -25.9665   28.2629 H   0  0  0  0  0  0  0  0  0  0  0  0
  -11.2450  -26.4018   26.6237 H   0  0  0  0  0  0  0  0  0  0  0  0
   -9.3031  -24.9777   26.0495 H   0  0  0  0  0  0  0  0  0  0  0  0
  -10.6694  -24.0943   25.8947 H   0  0  0  0  0  0  0  0  0  0  0  0
   -4.3083  -24.5321   30.7629 H   0  0  0  0  0  0  0  0  0  0  0  0
   -5.2363  -25.5978   29.8990 H   0  0  0  0  0  0  0  0  0  0  0  0
   -2.8773  -26.3174   29.8947 H   0  0  0  0  0  0  0  0  0  0  0  0
   -3.7203  -26.3966   28.3470 H   0  0  0  0  0  0  0  0  0  0  0  0
   -2.5226  -24.6573   27.4226 H   0  0  0  0  0  0  0  0  0  0  0  0
   -1.2972  -25.2004   28.5721 H   0  0  0  0  0  0  0  0  0  0  0  0
   -2.1312  -23.6189   30.2612 H   0  0  0  0  0  0  0  0  0  0  0  0
   -0.4894  -22.5573   29.1097 H   0  0  0  0  0  0  0  0  0  0  0  0
   -1.7989  -21.3986   29.0890 H   0  0  0  0  0  0  0  0  0  0  0  0
   -4.2398  -22.5503   30.2261 H   0  0  0  0  0  0  0  0  0  0  0  0
   -3.8966  -22.5895   28.3489 H   0  0  0  0  0  0  0  0  0  0  0  0
  1  2  2  0
  2  3  1  0
  3  4  1  0
  4  5  2  0
  5  6  1  0
  6  7  1  0
  7  8  1  0
  8  9  1  0
  2 10  1  0
 10 11  1  0
 11 12  1  0
 12 13  1  0
 13 14  1  0
 14 15  1  0
 15 16  1  0
 16 17  1  0
 16 18  1  0
 16 19  1  0
 14 20  1  0
  9  4  1  0
 20 10  1  0
  3 21  1  0
  3 22  1  0
  5 23  1  0
  6 24  1  0
  6 25  1  0
  7 26  1  0
  8 27  1  0
  8 28  1  0
  9 29  1  0
  9 30  1  0
 11 31  1  0
 11 32  1  0
 12 33  1  0
 12 34  1  0
 13 35  1  0
 13 36  1  0
 14 37  1  0
 15 38  1  0
 15 39  1  0
 20 40  1  0
 20 41  1  0
M  END
>  <Energy>  (472) 
329.81367634700092

>  <compound_id>  (472) 
17400

>  <target_id>  (472) 
1

>  <reference_id>  (472) 
85

>  <inspiration_ids>  (472) 
[46, 85]

>  <energy_score>  (472) 
264.1651241813146

>  <distance_score>  (472) 
11.024905992682976

>  <path>  (472) 
/opt/xchem-fragalysis-2/maxwin/BulkDock/SCRATCH/511014/C17400-P85/C17400-P85.minimised.mol

>  <scratch_subdir>  (472) 
/opt/xchem-fragalysis-2/maxwin/BulkDock/SCRATCH/511014/C17400-P85

>  <fragmenstein_runtime>  (472) 
11.745321273803711

>  <fragmenstein_outcome>  (472) 
too moved

>  <fragmenstein_mode>  (472) 
expansion

>  <fragmenstein_error>  (472) 


$$$$
C17401-P46
     RDKit          3D

 48 49  0  0  0  0  0  0  0  0999 V2000
   -7.0548  -20.3026   20.8520 C   0  0  0  0  0  0  0  0  0  0  0  0
   -7.5822  -19.1030   22.0769 S   0  0  0  0  0  0  0  0  0  0  0  0
   -6.8471  -19.3262   23.2923 O   0  0  0  0  0  0  0  0  0  0  0  0
   -7.5246  -17.8311   21.3983 O   0  0  0  0  0  0  0  0  0  0  0  0
   -9.2961  -19.6625   22.3837 N   0  0  0  0  0  0  0  0  0  0  0  0
  -10.0970  -19.3857   23.7397 C   0  0  0  0  0  0  0  0  0  0  0  0
   -9.4888  -17.7110   24.9266 C   0  0  0  0  0  0  0  0  0  0  0  0
   -9.3833  -18.2365   27.0294 C   0  0  0  0  0  0  0  0  0  0  0  0
   -9.7444  -20.4521   27.2101 C   0  0  0  0  0  0  0  0  0  0  0  0
  -10.8641  -21.8829   26.6600 N   0  0  0  0  0  0  0  0  0  0  0  0
  -11.9786  -22.3905   27.1615 C   0  0  0  0  0  0  0  0  0  0  0  0
  -12.9093  -21.9327   28.3303 O   0  0  0  0  0  0  0  0  0  0  0  0
  -12.3982  -23.3391   26.8809 N   0  0  0  0  0  0  0  0  0  0  0  0
  -13.5424  -24.2706   27.1494 C   0  0  0  0  0  0  0  0  0  0  0  0
  -14.2298  -24.9344   25.9003 C   0  0  0  0  0  0  0  0  0  0  0  0
  -14.8004  -26.3343   26.0492 C   0  0  0  0  0  0  0  0  0  0  0  0
  -14.9562  -27.0138   27.2012 C   0  0  0  0  0  0  0  0  0  0  0  0
  -15.5296  -28.3951   27.3002 C   0  0  0  0  0  0  0  0  0  0  0  0
  -15.5493  -29.1051   26.0192 N   0  0  0  0  0  0  0  0  0  0  0  0
  -16.1244  -28.2397   24.9836 C   0  0  0  0  0  0  0  0  0  0  0  0
  -15.2823  -26.9716   24.7582 C   0  0  0  0  0  0  0  0  0  0  0  0
  -11.2727  -20.5905   25.0827 C   0  0  0  0  0  0  0  0  0  0  0  0
   -6.9284  -21.2685   21.3439 H   0  0  0  0  0  0  0  0  0  0  0  0
   -6.1116  -19.9520   20.4315 H   0  0  0  0  0  0  0  0  0  0  0  0
   -7.8070  -20.3692   20.0662 H   0  0  0  0  0  0  0  0  0  0  0  0
   -9.4144  -20.6303   22.0739 H   0  0  0  0  0  0  0  0  0  0  0  0
  -10.9771  -18.9069   23.2256 H   0  0  0  0  0  0  0  0  0  0  0  0
   -8.5557  -17.2776   24.5117 H   0  0  0  0  0  0  0  0  0  0  0  0
  -10.2650  -16.9418   24.8069 H   0  0  0  0  0  0  0  0  0  0  0  0
   -8.6418  -18.2865   27.8868 H   0  0  0  0  0  0  0  0  0  0  0  0
   -8.4123  -17.6448   26.8761 H   0  0  0  0  0  0  0  0  0  0  0  0
   -8.6619  -20.9561   27.4278 H   0  0  0  0  0  0  0  0  0  0  0  0
   -9.9494  -20.8338   28.2996 H   0  0  0  0  0  0  0  0  0  0  0  0
  -12.4225  -24.1917   26.3968 H   0  0  0  0  0  0  0  0  0  0  0  0
  -13.0616  -25.1020   27.7089 H   0  0  0  0  0  0  0  0  0  0  0  0
  -14.1243  -23.8498   27.9479 H   0  0  0  0  0  0  0  0  0  0  0  0
  -15.0083  -24.2880   25.4855 H   0  0  0  0  0  0  0  0  0  0  0  0
  -13.4840  -25.0094   25.0940 H   0  0  0  0  0  0  0  0  0  0  0  0
  -14.7283  -26.5514   28.1487 H   0  0  0  0  0  0  0  0  0  0  0  0
  -16.5422  -28.3409   27.7163 H   0  0  0  0  0  0  0  0  0  0  0  0
  -14.9290  -28.9804   28.0055 H   0  0  0  0  0  0  0  0  0  0  0  0
  -14.5748  -29.3033   25.7563 H   0  0  0  0  0  0  0  0  0  0  0  0
  -16.1909  -28.7999   24.0443 H   0  0  0  0  0  0  0  0  0  0  0  0
  -17.1528  -27.9695   25.2560 H   0  0  0  0  0  0  0  0  0  0  0  0
  -15.8872  -26.2521   24.1933 H   0  0  0  0  0  0  0  0  0  0  0  0
  -14.4085  -27.2161   24.1422 H   0  0  0  0  0  0  0  0  0  0  0  0
  -12.3238  -20.4265   24.9413 H   0  0  0  0  0  0  0  0  0  0  0  0
  -11.4651  -21.3498   24.2497 H   0  0  0  0  0  0  0  0  0  0  0  0
  1  2  1  0
  2  3  2  0
  2  4  2  0
  2  5  1  0
  5  6  1  0
  6  7  1  0
  7  8  1  0
  8  9  1  0
  9 10  1  0
 10 11  1  0
 11 12  2  0
 11 13  1  0
 13 14  1  0
 14 15  1  0
 15 16  1  0
 16 17  2  0
 17 18  1  0
 18 19  1  0
 19 20  1  0
 20 21  1  0
 10 22  1  0
 22  6  1  0
 21 16  1  0
  1 23  1  0
  1 24  1  0
  1 25  1  0
  5 26  1  0
  6 27  1  0
  7 28  1  0
  7 29  1  0
  8 30  1  0
  8 31  1  0
  9 32  1  0
  9 33  1  0
 13 34  1  0
 14 35  1  0
 14 36  1  0
 15 37  1  0
 15 38  1  0
 17 39  1  0
 18 40  1  0
 18 41  1  0
 19 42  1  0
 20 43  1  0
 20 44  1  0
 21 45  1  0
 21 46  1  0
 22 47  1  0
 22 48  1  0
M  END
>  <Energy>  (473) 
892.11104739379982

>  <compound_id>  (473) 
17401

>  <target_id>  (473) 
1

>  <reference_id>  (473) 
46

>  <inspiration_ids>  (473) 
[46, 85]

>  <energy_score>  (473) 
937.0649538850682

>  <distance_score>  (473) 
10.793616055990375

>  <path>  (473) 
/opt/xchem-fragalysis-2/maxwin/BulkDock/SCRATCH/511014/C17401-P46/C17401-P46.minimised.mol

>  <scratch_subdir>  (473) 
/opt/xchem-fragalysis-2/maxwin/BulkDock/SCRATCH/511014/C17401-P46

>  <fragmenstein_runtime>  (473) 
20.69769835472107

>  <fragmenstein_outcome>  (473) 
too moved

>  <fragmenstein_mode>  (473) 
expansion

>  <fragmenstein_error>  (473) 


$$$$
C17401-P85
     RDKit          3D

 48 49  0  0  0  0  0  0  0  0999 V2000
   -8.9093  -17.6585   18.1721 C   0  0  0  0  0  0  0  0  0  0  0  0
   -8.1061  -19.1135   18.7926 S   0  0  0  0  0  0  0  0  0  0  0  0
   -6.7029  -18.8010   19.0027 O   0  0  0  0  0  0  0  0  0  0  0  0
   -8.4940  -20.2056   17.9309 O   0  0  0  0  0  0  0  0  0  0  0  0
   -8.8122  -19.3561   20.3175 N   0  0  0  0  0  0  0  0  0  0  0  0
  -10.1289  -20.0956   20.4848 C   0  0  0  0  0  0  0  0  0  0  0  0
  -10.7173  -19.7842   21.8880 C   0  0  0  0  0  0  0  0  0  0  0  0
  -11.3332  -21.0024   22.6120 C   0  0  0  0  0  0  0  0  0  0  0  0
  -12.2716  -21.8538   21.6609 C   0  0  0  0  0  0  0  0  0  0  0  0
  -11.1825  -22.6272   20.1637 N   0  0  0  0  0  0  0  0  0  0  0  0
  -11.2393  -22.8859   20.7264 C   0  0  0  0  0  0  0  0  0  0  0  0
  -12.2412  -21.4302   20.0523 O   0  0  0  0  0  0  0  0  0  0  0  0
  -11.2779  -23.6836   21.9407 N   0  0  0  0  0  0  0  0  0  0  0  0
  -12.2517  -23.7296   23.1672 C   0  0  0  0  0  0  0  0  0  0  0  0
  -11.6980  -24.8758   24.0767 C   0  0  0  0  0  0  0  0  0  0  0  0
  -12.5065  -25.3784   25.2492 C   0  0  0  0  0  0  0  0  0  0  0  0
  -13.2435  -26.5051   25.1733 C   0  0  0  0  0  0  0  0  0  0  0  0
  -13.9208  -27.1646   26.3390 C   0  0  0  0  0  0  0  0  0  0  0  0
  -13.9944  -26.3200   27.5322 N   0  0  0  0  0  0  0  0  0  0  0  0
  -12.6962  -25.6462   27.7535 C   0  0  0  0  0  0  0  0  0  0  0  0
  -12.3072  -24.7141   26.5881 C   0  0  0  0  0  0  0  0  0  0  0  0
   -9.9552  -21.6363   20.2839 C   0  0  0  0  0  0  0  0  0  0  0  0
   -8.4157  -17.3297   17.2596 H   0  0  0  0  0  0  0  0  0  0  0  0
   -9.9497  -17.9084   17.9520 H   0  0  0  0  0  0  0  0  0  0  0  0
   -8.8742  -16.8844   18.9362 H   0  0  0  0  0  0  0  0  0  0  0  0
   -8.1159  -19.4485   21.0621 H   0  0  0  0  0  0  0  0  0  0  0  0
  -10.7986  -19.6829   19.7201 H   0  0  0  0  0  0  0  0  0  0  0  0
   -9.9646  -19.3189   22.5329 H   0  0  0  0  0  0  0  0  0  0  0  0
  -11.4974  -19.0216   21.7633 H   0  0  0  0  0  0  0  0  0  0  0  0
  -10.5217  -21.6273   22.9741 H   0  0  0  0  0  0  0  0  0  0  0  0
  -11.9129  -20.6486   23.4711 H   0  0  0  0  0  0  0  0  0  0  0  0
  -12.9963  -20.9704   21.4980 H   0  0  0  0  0  0  0  0  0  0  0  0
  -13.1601  -22.4899   21.8446 H   0  0  0  0  0  0  0  0  0  0  0  0
  -10.4843  -24.3147   21.9124 H   0  0  0  0  0  0  0  0  0  0  0  0
  -12.3139  -22.8274   23.7724 H   0  0  0  0  0  0  0  0  0  0  0  0
  -13.2354  -24.0679   22.8176 H   0  0  0  0  0  0  0  0  0  0  0  0
  -11.5043  -25.7386   23.4207 H   0  0  0  0  0  0  0  0  0  0  0  0
  -10.6994  -24.5948   24.4304 H   0  0  0  0  0  0  0  0  0  0  0  0
  -13.3308  -27.0306   24.2247 H   0  0  0  0  0  0  0  0  0  0  0  0
  -13.3902  -28.0957   26.5715 H   0  0  0  0  0  0  0  0  0  0  0  0
  -14.9412  -27.4382   26.0499 H   0  0  0  0  0  0  0  0  0  0  0  0
  -14.1684  -26.9217   28.3408 H   0  0  0  0  0  0  0  0  0  0  0  0
  -11.9145  -26.4038   27.9002 H   0  0  0  0  0  0  0  0  0  0  0  0
  -12.7390  -25.0696   28.6831 H   0  0  0  0  0  0  0  0  0  0  0  0
  -12.8943  -23.7906   26.6107 H   0  0  0  0  0  0  0  0  0  0  0  0
  -11.2555  -24.4341   26.7184 H   0  0  0  0  0  0  0  0  0  0  0  0
   -9.4316  -21.8130   19.3361 H   0  0  0  0  0  0  0  0  0  0  0  0
   -9.2423  -22.0026   21.0508 H   0  0  0  0  0  0  0  0  0  0  0  0
  1  2  1  0
  2  3  2  0
  2  4  2  0
  2  5  1  0
  5  6  1  0
  6  7  1  0
  7  8  1  0
  8  9  1  0
  9 10  1  0
 10 11  1  0
 11 12  2  0
 11 13  1  0
 13 14  1  0
 14 15  1  0
 15 16  1  0
 16 17  2  0
 17 18  1  0
 18 19  1  0
 19 20  1  0
 20 21  1  0
 10 22  1  0
 22  6  1  0
 21 16  1  0
  1 23  1  0
  1 24  1  0
  1 25  1  0
  5 26  1  0
  6 27  1  0
  7 28  1  0
  7 29  1  0
  8 30  1  0
  8 31  1  0
  9 32  1  0
  9 33  1  0
 13 34  1  0
 14 35  1  0
 14 36  1  0
 15 37  1  0
 15 38  1  0
 17 39  1  0
 18 40  1  0
 18 41  1  0
 19 42  1  0
 20 43  1  0
 20 44  1  0
 21 45  1  0
 21 46  1  0
 22 47  1  0
 22 48  1  0
M  END
>  <Energy>  (474) 
1633.6317065179696

>  <compound_id>  (474) 
17401

>  <target_id>  (474) 
1

>  <reference_id>  (474) 
85

>  <inspiration_ids>  (474) 
[46, 85]

>  <energy_score>  (474) 
1678.5856130092632

>  <distance_score>  (474) 
12.082379747159864

>  <path>  (474) 
/opt/xchem-fragalysis-2/maxwin/BulkDock/SCRATCH/511014/C17401-P85/C17401-P85.minimised.mol

>  <scratch_subdir>  (474) 
/opt/xchem-fragalysis-2/maxwin/BulkDock/SCRATCH/511014/C17401-P85

>  <fragmenstein_runtime>  (474) 
21.10606288909912

>  <fragmenstein_outcome>  (474) 
too moved

>  <fragmenstein_mode>  (474) 
expansion

>  <fragmenstein_error>  (474) 


$$$$
C17403-P46
     RDKit          3D

 45 46  0  0  0  0  0  0  0  0999 V2000
   -2.2397  -24.4774   14.3197 C   0  0  0  0  0  0  0  0  0  0  0  0
   -3.7150  -23.4843   14.2262 S   0  0  0  0  0  0  0  0  0  0  0  0
   -3.2875  -22.1525   13.8585 O   0  0  0  0  0  0  0  0  0  0  0  0
   -4.6820  -24.1743   13.4131 O   0  0  0  0  0  0  0  0  0  0  0  0
   -4.2769  -23.4362   15.8499 N   0  0  0  0  0  0  0  0  0  0  0  0
   -4.7897  -24.6138   16.6469 C   0  0  0  0  0  0  0  0  0  0  0  0
   -3.9494  -24.8585   17.8960 C   0  0  0  0  0  0  0  0  0  0  0  0
   -4.5558  -26.0624   18.5952 C   0  0  0  0  0  0  0  0  0  0  0  0
   -5.9982  -26.2647   18.1063 C   0  0  0  0  0  0  0  0  0  0  0  0
   -6.9256  -25.1781   18.4723 N   0  0  0  0  0  0  0  0  0  0  0  0
   -6.8708  -24.2039   19.5839 C   0  0  0  0  0  0  0  0  0  0  0  0
   -6.0296  -24.0111   20.3824 O   0  0  0  0  0  0  0  0  0  0  0  0
   -8.2022  -23.6256   19.4566 N   0  0  0  0  0  0  0  0  0  0  0  0
   -8.9245  -22.7190   20.3190 C   0  0  0  0  0  0  0  0  0  0  0  0
   -9.9835  -23.4439   21.1266 C   0  0  0  0  0  0  0  0  0  0  0  0
   -9.8479  -23.7778   22.4285 C   0  0  0  0  0  0  0  0  0  0  0  0
  -10.9479  -24.3843   23.2620 C   0  0  0  0  0  0  0  0  0  0  0  0
  -12.2761  -24.2189   22.6762 N   0  0  0  0  0  0  0  0  0  0  0  0
  -12.2571  -24.5968   21.2615 C   0  0  0  0  0  0  0  0  0  0  0  0
  -11.3061  -23.7048   20.4396 C   0  0  0  0  0  0  0  0  0  0  0  0
   -6.3204  -24.5176   17.1187 C   0  0  0  0  0  0  0  0  0  0  0  0
   -2.5274  -25.5073   14.5400 H   0  0  0  0  0  0  0  0  0  0  0  0
   -1.5856  -24.0932   15.1016 H   0  0  0  0  0  0  0  0  0  0  0  0
   -1.7372  -24.4313   13.3514 H   0  0  0  0  0  0  0  0  0  0  0  0
   -3.7557  -22.7692   16.4077 H   0  0  0  0  0  0  0  0  0  0  0  0
   -4.7002  -25.4848   15.9827 H   0  0  0  0  0  0  0  0  0  0  0  0
   -3.9528  -23.9904   18.5592 H   0  0  0  0  0  0  0  0  0  0  0  0
   -2.9007  -25.0460   17.6387 H   0  0  0  0  0  0  0  0  0  0  0  0
   -3.9783  -26.9608   18.3450 H   0  0  0  0  0  0  0  0  0  0  0  0
   -4.4971  -25.9504   19.6829 H   0  0  0  0  0  0  0  0  0  0  0  0
   -6.1310  -26.7092   17.1056 H   0  0  0  0  0  0  0  0  0  0  0  0
   -6.3653  -27.0865   18.7414 H   0  0  0  0  0  0  0  0  0  0  0  0
   -8.6893  -24.0816   18.6990 H   0  0  0  0  0  0  0  0  0  0  0  0
   -8.1981  -22.2360   20.9819 H   0  0  0  0  0  0  0  0  0  0  0  0
   -9.3790  -21.9440   19.6940 H   0  0  0  0  0  0  0  0  0  0  0  0
   -8.8990  -23.6035   22.9293 H   0  0  0  0  0  0  0  0  0  0  0  0
  -10.7326  -25.4490   23.4080 H   0  0  0  0  0  0  0  0  0  0  0  0
  -10.9563  -23.9165   24.2495 H   0  0  0  0  0  0  0  0  0  0  0  0
  -12.9446  -24.7922   23.1863 H   0  0  0  0  0  0  0  0  0  0  0  0
  -11.9667  -25.6506   21.1598 H   0  0  0  0  0  0  0  0  0  0  0  0
  -13.2694  -24.5084   20.8515 H   0  0  0  0  0  0  0  0  0  0  0  0
  -11.7918  -22.7394   20.2488 H   0  0  0  0  0  0  0  0  0  0  0  0
  -11.1340  -24.1831   19.4683 H   0  0  0  0  0  0  0  0  0  0  0  0
   -6.5738  -23.4530   17.1961 H   0  0  0  0  0  0  0  0  0  0  0  0
   -6.9639  -24.8792   16.3001 H   0  0  0  0  0  0  0  0  0  0  0  0
  1  2  1  0
  2  3  2  0
  2  4  2  0
  2  5  1  0
  5  6  1  0
  6  7  1  0
  7  8  1  0
  8  9  1  0
  9 10  1  0
 10 11  1  0
 11 12  2  0
 11 13  1  0
 13 14  1  0
 14 15  1  0
 15 16  2  0
 16 17  1  0
 17 18  1  0
 18 19  1  0
 19 20  1  0
 10 21  1  0
 21  6  1  0
 20 15  1  0
  1 22  1  0
  1 23  1  0
  1 24  1  0
  5 25  1  0
  6 26  1  0
  7 27  1  0
  7 28  1  0
  8 29  1  0
  8 30  1  0
  9 31  1  0
  9 32  1  0
 13 33  1  0
 14 34  1  0
 14 35  1  0
 16 36  1  0
 17 37  1  0
 17 38  1  0
 18 39  1  0
 19 40  1  0
 19 41  1  0
 20 42  1  0
 20 43  1  0
 21 44  1  0
 21 45  1  0
M  END
>  <Energy>  (475) 
-39.813758145093729

>  <compound_id>  (475) 
17403

>  <target_id>  (475) 
1

>  <reference_id>  (475) 
46

>  <inspiration_ids>  (475) 
[46, 85]

>  <energy_score>  (475) 
19.229656376255587

>  <distance_score>  (475) 
13.385713732358989

>  <path>  (475) 
/opt/xchem-fragalysis-2/maxwin/BulkDock/SCRATCH/511014/C17403-P46/C17403-P46.minimised.mol

>  <scratch_subdir>  (475) 
/opt/xchem-fragalysis-2/maxwin/BulkDock/SCRATCH/511014/C17403-P46

>  <fragmenstein_runtime>  (475) 
39.61527967453003

>  <fragmenstein_outcome>  (475) 
too moved

>  <fragmenstein_mode>  (475) 
expansion

>  <fragmenstein_error>  (475) 


$$$$
C17403-P85
     RDKit          3D

 45 46  0  0  0  0  0  0  0  0999 V2000
   -0.2250  -16.0191   18.4269 C   0  0  0  0  0  0  0  0  0  0  0  0
   -1.9869  -15.9002   19.8507 S   0  0  0  0  0  0  0  0  0  0  0  0
   -2.1194  -14.7764   18.9452 O   0  0  0  0  0  0  0  0  0  0  0  0
   -1.2511  -16.2277   21.0635 O   0  0  0  0  0  0  0  0  0  0  0  0
   -3.4905  -16.4513   20.5222 N   0  0  0  0  0  0  0  0  0  0  0  0
   -4.7167  -16.4891   22.0439 C   0  0  0  0  0  0  0  0  0  0  0  0
   -4.9597  -15.2394   23.6716 C   0  0  0  0  0  0  0  0  0  0  0  0
   -6.2580  -16.0764   24.6868 C   0  0  0  0  0  0  0  0  0  0  0  0
   -7.1055  -17.4052   23.8211 C   0  0  0  0  0  0  0  0  0  0  0  0
   -7.0654  -18.7271   22.9609 N   0  0  0  0  0  0  0  0  0  0  0  0
   -8.1575  -19.4288   22.2283 C   0  0  0  0  0  0  0  0  0  0  0  0
   -9.2721  -19.1101   22.0462 O   0  0  0  0  0  0  0  0  0  0  0  0
   -7.4660  -20.6599   21.8922 N   0  0  0  0  0  0  0  0  0  0  0  0
   -7.9074  -21.8197   21.1535 C   0  0  0  0  0  0  0  0  0  0  0  0
   -8.9458  -22.6807   21.8619 C   0  0  0  0  0  0  0  0  0  0  0  0
  -10.2399  -22.3316   22.0362 C   0  0  0  0  0  0  0  0  0  0  0  0
  -11.3254  -23.2630   22.5152 C   0  0  0  0  0  0  0  0  0  0  0  0
  -10.9749  -24.6797   22.3781 N   0  0  0  0  0  0  0  0  0  0  0  0
   -9.6300  -24.9281   22.8992 C   0  0  0  0  0  0  0  0  0  0  0  0
   -8.5299  -24.0931   22.2094 C   0  0  0  0  0  0  0  0  0  0  0  0
   -6.1923  -17.7421   21.8763 C   0  0  0  0  0  0  0  0  0  0  0  0
   -0.2178  -16.9694   17.9389 H   0  0  0  0  0  0  0  0  0  0  0  0
    0.7731  -16.2585   18.9114 H   0  0  0  0  0  0  0  0  0  0  0  0
   -0.3210  -15.0758   17.8545 H   0  0  0  0  0  0  0  0  0  0  0  0
   -3.6692  -17.3690   20.1088 H   0  0  0  0  0  0  0  0  0  0  0  0
   -4.0834  -17.1706   22.3520 H   0  0  0  0  0  0  0  0  0  0  0  0
   -4.0317  -15.1238   24.2692 H   0  0  0  0  0  0  0  0  0  0  0  0
   -5.4489  -14.2571   23.6455 H   0  0  0  0  0  0  0  0  0  0  0  0
   -5.8820  -16.3629   25.6767 H   0  0  0  0  0  0  0  0  0  0  0  0
   -7.0228  -15.3099   24.8870 H   0  0  0  0  0  0  0  0  0  0  0  0
   -7.2230  -17.9434   24.7604 H   0  0  0  0  0  0  0  0  0  0  0  0
   -8.1268  -17.0141   23.6524 H   0  0  0  0  0  0  0  0  0  0  0  0
   -6.5222  -20.6259   22.2739 H   0  0  0  0  0  0  0  0  0  0  0  0
   -7.0184  -22.4112   20.9147 H   0  0  0  0  0  0  0  0  0  0  0  0
   -8.3304  -21.4598   20.2085 H   0  0  0  0  0  0  0  0  0  0  0  0
  -10.5654  -21.3278   21.7708 H   0  0  0  0  0  0  0  0  0  0  0  0
  -12.2218  -23.0849   21.9094 H   0  0  0  0  0  0  0  0  0  0  0  0
  -11.6118  -23.0440   23.5445 H   0  0  0  0  0  0  0  0  0  0  0  0
  -10.9826  -24.8973   21.3827 H   0  0  0  0  0  0  0  0  0  0  0  0
   -9.3971  -25.9914   22.7702 H   0  0  0  0  0  0  0  0  0  0  0  0
   -9.6308  -24.7558   23.9784 H   0  0  0  0  0  0  0  0  0  0  0  0
   -7.6461  -24.0664   22.8570 H   0  0  0  0  0  0  0  0  0  0  0  0
   -8.2403  -24.5997   21.2797 H   0  0  0  0  0  0  0  0  0  0  0  0
   -6.9799  -17.3024   21.2226 H   0  0  0  0  0  0  0  0  0  0  0  0
   -5.8644  -18.4675   21.1161 H   0  0  0  0  0  0  0  0  0  0  0  0
  1  2  1  0
  2  3  2  0
  2  4  2  0
  2  5  1  0
  5  6  1  0
  6  7  1  0
  7  8  1  0
  8  9  1  0
  9 10  1  0
 10 11  1  0
 11 12  2  0
 11 13  1  0
 13 14  1  0
 14 15  1  0
 15 16  2  0
 16 17  1  0
 17 18  1  0
 18 19  1  0
 19 20  1  0
 10 21  1  0
 21  6  1  0
 20 15  1  0
  1 22  1  0
  1 23  1  0
  1 24  1  0
  5 25  1  0
  6 26  1  0
  7 27  1  0
  7 28  1  0
  8 29  1  0
  8 30  1  0
  9 31  1  0
  9 32  1  0
 13 33  1  0
 14 34  1  0
 14 35  1  0
 16 36  1  0
 17 37  1  0
 17 38  1  0
 18 39  1  0
 19 40  1  0
 19 41  1  0
 20 42  1  0
 20 43  1  0
 21 44  1  0
 21 45  1  0
M  END
>  <Energy>  (476) 
442.58960068215117

>  <compound_id>  (476) 
17403

>  <target_id>  (476) 
1

>  <reference_id>  (476) 
85

>  <inspiration_ids>  (476) 
[46, 85]

>  <energy_score>  (476) 
501.6330152034966

>  <distance_score>  (476) 
11.437951007109845

>  <path>  (476) 
/opt/xchem-fragalysis-2/maxwin/BulkDock/SCRATCH/511014/C17403-P85/C17403-P85.minimised.mol

>  <scratch_subdir>  (476) 
/opt/xchem-fragalysis-2/maxwin/BulkDock/SCRATCH/511014/C17403-P85

>  <fragmenstein_runtime>  (476) 
20.173621654510498

>  <fragmenstein_outcome>  (476) 
too moved

>  <fragmenstein_mode>  (476) 
expansion

>  <fragmenstein_error>  (476) 


$$$$
C17405-P46
     RDKit          3D

 56 57  0  0  0  0  0  0  0  0999 V2000
   -1.9966  -21.2038   23.3762 C   0  0  0  0  0  0  0  0  0  0  0  0
   -2.1338  -20.3094   22.1166 C   0  0  0  0  0  0  0  0  0  0  0  0
   -3.4750  -20.7085   21.4548 C   0  0  0  0  0  0  0  0  0  0  0  0
   -2.2125  -18.8433   22.5728 C   0  0  0  0  0  0  0  0  0  0  0  0
   -0.9649  -20.4681   21.1888 N   0  0  0  0  0  0  0  0  0  0  0  0
   -0.5618  -19.6920   20.0063 C   0  0  0  0  0  0  0  0  0  0  0  0
   -1.1117  -18.7864   19.4426 O   0  0  0  0  0  0  0  0  0  0  0  0
    0.8265  -20.2531   19.4176 C   0  0  0  0  0  0  0  0  0  0  0  0
    1.4058  -19.4210   18.3187 N   0  0  0  0  0  0  0  0  0  0  0  0
    2.3630  -18.3916   18.7364 C   0  0  0  0  0  0  0  0  0  0  0  0
    3.2247  -17.8404   17.5745 C   0  0  0  0  0  0  0  0  0  0  0  0
    4.1207  -18.9471   17.0111 C   0  0  0  0  0  0  0  0  0  0  0  0
    4.9678  -18.5044   15.8091 C   0  0  0  0  0  0  0  0  0  0  0  0
    4.4534  -18.7447   14.4864 N   0  0  0  0  0  0  0  0  0  0  0  0
    4.9429  -19.5673   13.4264 C   0  0  0  0  0  0  0  0  0  0  0  0
    5.8639  -20.3314   13.3904 O   0  0  0  0  0  0  0  0  0  0  0  0
    4.2094  -19.3259   12.1445 C   0  0  0  0  0  0  0  0  0  0  0  0
    4.9439  -18.9810   11.0692 C   0  0  0  0  0  0  0  0  0  0  0  0
    4.3648  -18.7875    9.7048 C   0  0  0  0  0  0  0  0  0  0  0  0
    3.0230  -19.3380    9.5437 N   0  0  0  0  0  0  0  0  0  0  0  0
    2.1795  -19.0181   10.7068 C   0  0  0  0  0  0  0  0  0  0  0  0
    2.7481  -19.6026   12.0091 C   0  0  0  0  0  0  0  0  0  0  0  0
    3.3462  -20.2630   16.8604 C   0  0  0  0  0  0  0  0  0  0  0  0
    1.8352  -20.1071   17.0867 C   0  0  0  0  0  0  0  0  0  0  0  0
   -1.9384  -22.2617   23.0962 H   0  0  0  0  0  0  0  0  0  0  0  0
   -1.0772  -20.9620   23.9214 H   0  0  0  0  0  0  0  0  0  0  0  0
   -2.8423  -21.0745   24.0604 H   0  0  0  0  0  0  0  0  0  0  0  0
   -4.3197  -20.5805   22.1405 H   0  0  0  0  0  0  0  0  0  0  0  0
   -3.6642  -20.0962   20.5658 H   0  0  0  0  0  0  0  0  0  0  0  0
   -3.4507  -21.7541   21.1277 H   0  0  0  0  0  0  0  0  0  0  0  0
   -2.3986  -18.1698   21.7292 H   0  0  0  0  0  0  0  0  0  0  0  0
   -3.0208  -18.6932   23.2974 H   0  0  0  0  0  0  0  0  0  0  0  0
   -1.2746  -18.5281   23.0444 H   0  0  0  0  0  0  0  0  0  0  0  0
   -0.2168  -21.1048   21.4387 H   0  0  0  0  0  0  0  0  0  0  0  0
    0.5898  -21.2563   19.0429 H   0  0  0  0  0  0  0  0  0  0  0  0
    1.5429  -20.3666   20.2387 H   0  0  0  0  0  0  0  0  0  0  0  0
    1.8255  -17.5699   19.2193 H   0  0  0  0  0  0  0  0  0  0  0  0
    3.0467  -18.8022   19.4912 H   0  0  0  0  0  0  0  0  0  0  0  0
    3.8418  -17.0135   17.9459 H   0  0  0  0  0  0  0  0  0  0  0  0
    2.5957  -17.4364   16.7843 H   0  0  0  0  0  0  0  0  0  0  0  0
    4.8614  -19.1298   17.8058 H   0  0  0  0  0  0  0  0  0  0  0  0
    5.9296  -19.0298   15.8585 H   0  0  0  0  0  0  0  0  0  0  0  0
    5.1951  -17.4347   15.8743 H   0  0  0  0  0  0  0  0  0  0  0  0
    3.5932  -18.2821   14.1796 H   0  0  0  0  0  0  0  0  0  0  0  0
    6.0199  -18.8655   11.1663 H   0  0  0  0  0  0  0  0  0  0  0  0
    4.3542  -17.7163    9.4714 H   0  0  0  0  0  0  0  0  0  0  0  0
    5.0213  -19.2616    8.9665 H   0  0  0  0  0  0  0  0  0  0  0  0
    3.0969  -20.3546    9.4892 H   0  0  0  0  0  0  0  0  0  0  0  0
    1.1834  -19.4325   10.5347 H   0  0  0  0  0  0  0  0  0  0  0  0
    2.0603  -17.9308   10.7911 H   0  0  0  0  0  0  0  0  0  0  0  0
    2.6428  -20.6915   11.9923 H   0  0  0  0  0  0  0  0  0  0  0  0
    2.1688  -19.2327   12.8558 H   0  0  0  0  0  0  0  0  0  0  0  0
    3.7281  -20.9793   17.6003 H   0  0  0  0  0  0  0  0  0  0  0  0
    3.5205  -20.7274   15.8841 H   0  0  0  0  0  0  0  0  0  0  0  0
    1.4841  -19.5046   16.2478 H   0  0  0  0  0  0  0  0  0  0  0  0
    1.3536  -21.0861   16.9928 H   0  0  0  0  0  0  0  0  0  0  0  0
  1  2  1  0
  2  3  1  0
  2  4  1  0
  2  5  1  0
  5  6  1  0
  6  7  2  0
  6  8  1  0
  8  9  1  0
  9 10  1  0
 10 11  1  0
 11 12  1  0
 12 13  1  0
 13 14  1  0
 14 15  1  0
 15 16  2  0
 15 17  1  0
 17 18  2  0
 18 19  1  0
 19 20  1  0
 20 21  1  0
 21 22  1  0
 12 23  1  0
 23 24  1  0
 24  9  1  0
 22 17  1  0
  1 25  1  0
  1 26  1  0
  1 27  1  0
  3 28  1  0
  3 29  1  0
  3 30  1  0
  4 31  1  0
  4 32  1  0
  4 33  1  0
  5 34  1  0
  8 35  1  0
  8 36  1  0
 10 37  1  0
 10 38  1  0
 11 39  1  0
 11 40  1  0
 12 41  1  0
 13 42  1  0
 13 43  1  0
 14 44  1  0
 18 45  1  0
 19 46  1  0
 19 47  1  0
 20 48  1  0
 21 49  1  0
 21 50  1  0
 22 51  1  0
 22 52  1  0
 23 53  1  0
 23 54  1  0
 24 55  1  0
 24 56  1  0
M  END
>  <Energy>  (477) 
43.168617410601001

>  <compound_id>  (477) 
17405

>  <target_id>  (477) 
1

>  <reference_id>  (477) 
46

>  <inspiration_ids>  (477) 
[46, 85]

>  <energy_score>  (477) 
-29.27250281367796

>  <distance_score>  (477) 
11.781228116764112

>  <path>  (477) 
/opt/xchem-fragalysis-2/maxwin/BulkDock/SCRATCH/511014/C17405-P46/C17405-P46.minimised.mol

>  <scratch_subdir>  (477) 
/opt/xchem-fragalysis-2/maxwin/BulkDock/SCRATCH/511014/C17405-P46

>  <fragmenstein_runtime>  (477) 
106.29502415657043

>  <fragmenstein_outcome>  (477) 
too moved

>  <fragmenstein_mode>  (477) 
expansion

>  <fragmenstein_error>  (477) 


$$$$
C17405-P85
     RDKit          3D

 56 57  0  0  0  0  0  0  0  0999 V2000
   -1.7704  -19.8320   23.4750 C   0  0  0  0  0  0  0  0  0  0  0  0
   -1.0336  -20.7496   22.4562 C   0  0  0  0  0  0  0  0  0  0  0  0
   -2.1345  -21.6249   21.8105 C   0  0  0  0  0  0  0  0  0  0  0  0
   -0.0576  -21.6496   23.2295 C   0  0  0  0  0  0  0  0  0  0  0  0
   -0.2623  -19.9386   21.4580 N   0  0  0  0  0  0  0  0  0  0  0  0
    0.7451  -20.3440   20.4501 C   0  0  0  0  0  0  0  0  0  0  0  0
    1.1340  -21.4327   20.1307 O   0  0  0  0  0  0  0  0  0  0  0  0
    1.2981  -19.0339   19.7207 C   0  0  0  0  0  0  0  0  0  0  0  0
    2.4687  -19.1556   18.7642 N   0  0  0  0  0  0  0  0  0  0  0  0
    2.1878  -20.0015   17.5837 C   0  0  0  0  0  0  0  0  0  0  0  0
    3.2130  -19.9368   16.4269 C   0  0  0  0  0  0  0  0  0  0  0  0
    3.5895  -18.5139   16.0086 C   0  0  0  0  0  0  0  0  0  0  0  0
    4.6800  -18.4948   14.9268 C   0  0  0  0  0  0  0  0  0  0  0  0
    4.1459  -18.7060   13.5999 N   0  0  0  0  0  0  0  0  0  0  0  0
    4.7842  -19.0788   12.3854 C   0  0  0  0  0  0  0  0  0  0  0  0
    5.9162  -19.3918   12.1607 O   0  0  0  0  0  0  0  0  0  0  0  0
    3.8068  -19.0713   11.2572 C   0  0  0  0  0  0  0  0  0  0  0  0
    3.9935  -18.2453   10.2118 C   0  0  0  0  0  0  0  0  0  0  0  0
    3.1414  -18.2954    8.9760 C   0  0  0  0  0  0  0  0  0  0  0  0
    2.0131  -19.2191    9.0419 N   0  0  0  0  0  0  0  0  0  0  0  0
    2.3495  -20.4382    9.7778 C   0  0  0  0  0  0  0  0  0  0  0  0
    2.7469  -20.1312   11.2269 C   0  0  0  0  0  0  0  0  0  0  0  0
    4.0205  -17.7599   17.2639 C   0  0  0  0  0  0  0  0  0  0  0  0
    2.9441  -17.8044   18.3642 C   0  0  0  0  0  0  0  0  0  0  0  0
   -2.3173  -20.4161   24.2231 H   0  0  0  0  0  0  0  0  0  0  0  0
   -1.0542  -19.1899   24.0002 H   0  0  0  0  0  0  0  0  0  0  0  0
   -2.4818  -19.1744   22.9633 H   0  0  0  0  0  0  0  0  0  0  0  0
   -2.6630  -22.2261   22.5584 H   0  0  0  0  0  0  0  0  0  0  0  0
   -1.6995  -22.3080   21.0725 H   0  0  0  0  0  0  0  0  0  0  0  0
   -2.8711  -21.0068   21.2869 H   0  0  0  0  0  0  0  0  0  0  0  0
   -0.5716  -22.2134   24.0161 H   0  0  0  0  0  0  0  0  0  0  0  0
    0.4277  -22.3753   22.5681 H   0  0  0  0  0  0  0  0  0  0  0  0
    0.7328  -21.0561   23.7031 H   0  0  0  0  0  0  0  0  0  0  0  0
   -0.4007  -18.9374   21.4051 H   0  0  0  0  0  0  0  0  0  0  0  0
    1.6104  -18.3616   20.5304 H   0  0  0  0  0  0  0  0  0  0  0  0
    0.4545  -18.5711   19.2001 H   0  0  0  0  0  0  0  0  0  0  0  0
    2.1498  -21.0475   17.9073 H   0  0  0  0  0  0  0  0  0  0  0  0
    1.1977  -19.7857   17.1908 H   0  0  0  0  0  0  0  0  0  0  0  0
    2.8105  -20.4858   15.5669 H   0  0  0  0  0  0  0  0  0  0  0  0
    4.1179  -20.4728   16.7434 H   0  0  0  0  0  0  0  0  0  0  0  0
    2.7083  -18.0186   15.6069 H   0  0  0  0  0  0  0  0  0  0  0  0
    5.1747  -17.5187   14.8979 H   0  0  0  0  0  0  0  0  0  0  0  0
    5.4596  -19.2421   15.1098 H   0  0  0  0  0  0  0  0  0  0  0  0
    3.1825  -18.4206   13.3963 H   0  0  0  0  0  0  0  0  0  0  0  0
    4.8122  -17.5370   10.2052 H   0  0  0  0  0  0  0  0  0  0  0  0
    3.7788  -18.5784    8.1299 H   0  0  0  0  0  0  0  0  0  0  0  0
    2.7626  -17.2903    8.7589 H   0  0  0  0  0  0  0  0  0  0  0  0
    1.2116  -18.7628    9.4850 H   0  0  0  0  0  0  0  0  0  0  0  0
    3.1614  -20.9678    9.2623 H   0  0  0  0  0  0  0  0  0  0  0  0
    1.4924  -21.1157    9.7641 H   0  0  0  0  0  0  0  0  0  0  0  0
    1.8740  -19.7899   11.7966 H   0  0  0  0  0  0  0  0  0  0  0  0
    3.1114  -21.0519   11.6966 H   0  0  0  0  0  0  0  0  0  0  0  0
    4.9513  -18.1898   17.6564 H   0  0  0  0  0  0  0  0  0  0  0  0
    4.2345  -16.7125   17.0184 H   0  0  0  0  0  0  0  0  0  0  0  0
    2.1086  -17.1676   18.0607 H   0  0  0  0  0  0  0  0  0  0  0  0
    3.3710  -17.3254   19.2547 H   0  0  0  0  0  0  0  0  0  0  0  0
  1  2  1  0
  2  3  1  0
  2  4  1  0
  2  5  1  0
  5  6  1  0
  6  7  2  0
  6  8  1  0
  8  9  1  0
  9 10  1  0
 10 11  1  0
 11 12  1  0
 12 13  1  0
 13 14  1  0
 14 15  1  0
 15 16  2  0
 15 17  1  0
 17 18  2  0
 18 19  1  0
 19 20  1  0
 20 21  1  0
 21 22  1  0
 12 23  1  0
 23 24  1  0
 24  9  1  0
 22 17  1  0
  1 25  1  0
  1 26  1  0
  1 27  1  0
  3 28  1  0
  3 29  1  0
  3 30  1  0
  4 31  1  0
  4 32  1  0
  4 33  1  0
  5 34  1  0
  8 35  1  0
  8 36  1  0
 10 37  1  0
 10 38  1  0
 11 39  1  0
 11 40  1  0
 12 41  1  0
 13 42  1  0
 13 43  1  0
 14 44  1  0
 18 45  1  0
 19 46  1  0
 19 47  1  0
 20 48  1  0
 21 49  1  0
 21 50  1  0
 22 51  1  0
 22 52  1  0
 23 53  1  0
 23 54  1  0
 24 55  1  0
 24 56  1  0
M  END
>  <Energy>  (478) 
30.232866283476454

>  <compound_id>  (478) 
17405

>  <target_id>  (478) 
1

>  <reference_id>  (478) 
85

>  <inspiration_ids>  (478) 
[46, 85]

>  <energy_score>  (478) 
-42.20825394079293

>  <distance_score>  (478) 
11.825579274844122

>  <path>  (478) 
/opt/xchem-fragalysis-2/maxwin/BulkDock/SCRATCH/511014/C17405-P85/C17405-P85.minimised.mol

>  <scratch_subdir>  (478) 
/opt/xchem-fragalysis-2/maxwin/BulkDock/SCRATCH/511014/C17405-P85

>  <fragmenstein_runtime>  (478) 
104.71987271308899

>  <fragmenstein_outcome>  (478) 
too moved

>  <fragmenstein_mode>  (478) 
expansion

>  <fragmenstein_error>  (478) 


$$$$
C17416-P46
     RDKit          3D

 39 40  0  0  0  0  0  0  0  0999 V2000
   -7.7578  -21.0549   18.4352 F   0  0  0  0  0  0  0  0  0  0  0  0
   -7.8500  -21.4928   19.7336 C   0  0  0  0  0  0  0  0  0  0  0  0
   -9.2689  -22.1049   20.0595 C   0  0  0  0  0  0  0  0  0  0  0  0
   -9.5917  -22.5230   21.5785 C   0  0  0  0  0  0  0  0  0  0  0  0
  -10.8626  -21.8544   22.1992 C   0  0  0  0  0  0  0  0  0  0  0  0
  -11.9490  -22.7818   22.7890 C   0  0  0  0  0  0  0  0  0  0  0  0
  -11.4917  -23.9323   23.5515 N   0  0  0  0  0  0  0  0  0  0  0  0
  -11.7765  -23.9233   24.9909 C   0  0  0  0  0  0  0  0  0  0  0  0
  -12.7781  -24.9453   25.4639 C   0  0  0  0  0  0  0  0  0  0  0  0
  -13.9566  -25.1670   24.8558 C   0  0  0  0  0  0  0  0  0  0  0  0
  -14.9979  -26.1244   25.3496 C   0  0  0  0  0  0  0  0  0  0  0  0
  -14.5418  -27.0602   26.3741 N   0  0  0  0  0  0  0  0  0  0  0  0
  -13.6551  -26.4222   27.3357 C   0  0  0  0  0  0  0  0  0  0  0  0
  -12.4549  -25.6756   26.7422 C   0  0  0  0  0  0  0  0  0  0  0  0
  -10.1990  -24.4604   23.1419 C   0  0  0  0  0  0  0  0  0  0  0  0
   -9.7460  -24.0481   21.7310 C   0  0  0  0  0  0  0  0  0  0  0  0
   -7.0839  -22.2611   19.8758 H   0  0  0  0  0  0  0  0  0  0  0  0
   -7.6112  -20.6521   20.3869 H   0  0  0  0  0  0  0  0  0  0  0  0
   -9.3837  -22.9869   19.4165 H   0  0  0  0  0  0  0  0  0  0  0  0
  -10.0253  -21.4017   19.6970 H   0  0  0  0  0  0  0  0  0  0  0  0
   -8.7297  -22.2099   22.1816 H   0  0  0  0  0  0  0  0  0  0  0  0
  -10.5463  -21.1727   22.9908 H   0  0  0  0  0  0  0  0  0  0  0  0
  -11.3552  -21.2281   21.4472 H   0  0  0  0  0  0  0  0  0  0  0  0
  -12.5220  -23.1792   21.9402 H   0  0  0  0  0  0  0  0  0  0  0  0
  -12.6727  -22.1750   23.3474 H   0  0  0  0  0  0  0  0  0  0  0  0
  -12.1430  -22.9475   25.3164 H   0  0  0  0  0  0  0  0  0  0  0  0
  -10.8554  -24.0750   25.5570 H   0  0  0  0  0  0  0  0  0  0  0  0
  -14.2139  -24.5996   23.9648 H   0  0  0  0  0  0  0  0  0  0  0  0
  -15.3662  -26.7090   24.4985 H   0  0  0  0  0  0  0  0  0  0  0  0
  -15.8577  -25.5571   25.7182 H   0  0  0  0  0  0  0  0  0  0  0  0
  -14.0924  -27.8554   25.9213 H   0  0  0  0  0  0  0  0  0  0  0  0
  -13.2879  -27.1865   28.0293 H   0  0  0  0  0  0  0  0  0  0  0  0
  -14.2351  -25.7197   27.9309 H   0  0  0  0  0  0  0  0  0  0  0  0
  -12.0829  -24.9669   27.4923 H   0  0  0  0  0  0  0  0  0  0  0  0
  -11.6447  -26.3853   26.5397 H   0  0  0  0  0  0  0  0  0  0  0  0
   -9.4049  -24.1412   23.8112 H   0  0  0  0  0  0  0  0  0  0  0  0
  -10.2417  -25.5546   23.1834 H   0  0  0  0  0  0  0  0  0  0  0  0
  -10.4666  -24.4283   20.9951 H   0  0  0  0  0  0  0  0  0  0  0  0
   -8.7871  -24.5310   21.5057 H   0  0  0  0  0  0  0  0  0  0  0  0
  1  2  1  0
  2  3  1  0
  3  4  1  0
  4  5  1  0
  5  6  1  0
  6  7  1  0
  7  8  1  0
  8  9  1  0
  9 10  2  0
 10 11  1  0
 11 12  1  0
 12 13  1  0
 13 14  1  0
  7 15  1  0
 15 16  1  0
 16  4  1  0
 14  9  1  0
  2 17  1  0
  2 18  1  0
  3 19  1  0
  3 20  1  0
  4 21  1  0
  5 22  1  0
  5 23  1  0
  6 24  1  0
  6 25  1  0
  8 26  1  0
  8 27  1  0
 10 28  1  0
 11 29  1  0
 11 30  1  0
 12 31  1  0
 13 32  1  0
 13 33  1  0
 14 34  1  0
 14 35  1  0
 15 36  1  0
 15 37  1  0
 16 38  1  0
 16 39  1  0
M  END
>  <Energy>  (479) 
33.655260591493715

>  <compound_id>  (479) 
17416

>  <target_id>  (479) 
1

>  <reference_id>  (479) 
46

>  <inspiration_ids>  (479) 
[46, 85]

>  <energy_score>  (479) 
-19.23564345712768

>  <distance_score>  (479) 
10.603671927677823

>  <path>  (479) 
/opt/xchem-fragalysis-2/maxwin/BulkDock/SCRATCH/511014/C17416-P46/C17416-P46.minimised.mol

>  <scratch_subdir>  (479) 
/opt/xchem-fragalysis-2/maxwin/BulkDock/SCRATCH/511014/C17416-P46

>  <fragmenstein_runtime>  (479) 
15.675284385681152

>  <fragmenstein_outcome>  (479) 
too moved

>  <fragmenstein_mode>  (479) 
expansion

>  <fragmenstein_error>  (479) 


$$$$
C17416-P85
     RDKit          3D

 39 40  0  0  0  0  0  0  0  0999 V2000
   -5.3764  -19.6294   16.8654 F   0  0  0  0  0  0  0  0  0  0  0  0
   -5.4930  -19.9694   18.1876 C   0  0  0  0  0  0  0  0  0  0  0  0
   -6.7086  -20.8964   18.4416 C   0  0  0  0  0  0  0  0  0  0  0  0
   -7.0277  -21.3324   19.9346 C   0  0  0  0  0  0  0  0  0  0  0  0
   -8.4190  -22.0212   19.9898 C   0  0  0  0  0  0  0  0  0  0  0  0
   -8.7408  -22.6981   21.3300 C   0  0  0  0  0  0  0  0  0  0  0  0
   -7.7147  -23.7201   21.5394 N   0  0  0  0  0  0  0  0  0  0  0  0
   -8.0717  -24.7704   22.4965 C   0  0  0  0  0  0  0  0  0  0  0  0
   -8.8831  -25.9366   21.9100 C   0  0  0  0  0  0  0  0  0  0  0  0
   -9.4199  -25.9591   20.6736 C   0  0  0  0  0  0  0  0  0  0  0  0
  -10.3047  -27.0569   20.1622 C   0  0  0  0  0  0  0  0  0  0  0  0
  -10.1715  -28.3262   20.8801 N   0  0  0  0  0  0  0  0  0  0  0  0
  -10.2635  -28.1173   22.3185 C   0  0  0  0  0  0  0  0  0  0  0  0
   -9.1834  -27.1392   22.8091 C   0  0  0  0  0  0  0  0  0  0  0  0
   -6.4252  -23.0632   21.7723 C   0  0  0  0  0  0  0  0  0  0  0  0
   -5.9740  -22.3013   20.5099 C   0  0  0  0  0  0  0  0  0  0  0  0
   -4.5749  -20.4842   18.4786 H   0  0  0  0  0  0  0  0  0  0  0  0
   -5.6007  -19.0451   18.7616 H   0  0  0  0  0  0  0  0  0  0  0  0
   -7.5892  -20.3948   18.0254 H   0  0  0  0  0  0  0  0  0  0  0  0
   -6.5788  -21.7976   17.8283 H   0  0  0  0  0  0  0  0  0  0  0  0
   -7.0627  -20.4331   20.5621 H   0  0  0  0  0  0  0  0  0  0  0  0
   -8.4597  -22.7852   19.1995 H   0  0  0  0  0  0  0  0  0  0  0  0
   -9.2026  -21.3068   19.7270 H   0  0  0  0  0  0  0  0  0  0  0  0
   -8.7647  -21.9718   22.1469 H   0  0  0  0  0  0  0  0  0  0  0  0
   -9.7407  -23.1396   21.2597 H   0  0  0  0  0  0  0  0  0  0  0  0
   -7.1348  -25.2202   22.8379 H   0  0  0  0  0  0  0  0  0  0  0  0
   -8.5858  -24.3545   23.3666 H   0  0  0  0  0  0  0  0  0  0  0  0
   -9.2679  -25.1283   19.9911 H   0  0  0  0  0  0  0  0  0  0  0  0
  -11.3483  -26.7218   20.1830 H   0  0  0  0  0  0  0  0  0  0  0  0
  -10.0597  -27.2414   19.1100 H   0  0  0  0  0  0  0  0  0  0  0  0
   -9.2467  -28.6974   20.6627 H   0  0  0  0  0  0  0  0  0  0  0  0
  -10.1321  -29.0785   22.8294 H   0  0  0  0  0  0  0  0  0  0  0  0
  -11.2726  -27.7854   22.5810 H   0  0  0  0  0  0  0  0  0  0  0  0
   -8.2560  -27.7166   22.9020 H   0  0  0  0  0  0  0  0  0  0  0  0
   -9.5122  -26.7910   23.7903 H   0  0  0  0  0  0  0  0  0  0  0  0
   -6.4644  -22.3696   22.6100 H   0  0  0  0  0  0  0  0  0  0  0  0
   -5.6507  -23.8053   22.0001 H   0  0  0  0  0  0  0  0  0  0  0  0
   -5.0467  -21.7567   20.7200 H   0  0  0  0  0  0  0  0  0  0  0  0
   -5.7220  -23.0442   19.7407 H   0  0  0  0  0  0  0  0  0  0  0  0
  1  2  1  0
  2  3  1  0
  3  4  1  0
  4  5  1  0
  5  6  1  0
  6  7  1  0
  7  8  1  0
  8  9  1  0
  9 10  2  0
 10 11  1  0
 11 12  1  0
 12 13  1  0
 13 14  1  0
  7 15  1  0
 15 16  1  0
 16  4  1  0
 14  9  1  0
  2 17  1  0
  2 18  1  0
  3 19  1  0
  3 20  1  0
  4 21  1  0
  5 22  1  0
  5 23  1  0
  6 24  1  0
  6 25  1  0
  8 26  1  0
  8 27  1  0
 10 28  1  0
 11 29  1  0
 11 30  1  0
 12 31  1  0
 13 32  1  0
 13 33  1  0
 14 34  1  0
 14 35  1  0
 15 36  1  0
 15 37  1  0
 16 38  1  0
 16 39  1  0
M  END
>  <Energy>  (480) 
14.732797061870576

>  <compound_id>  (480) 
17416

>  <target_id>  (480) 
1

>  <reference_id>  (480) 
85

>  <inspiration_ids>  (480) 
[46, 85]

>  <energy_score>  (480) 
-38.158106986754376

>  <distance_score>  (480) 
12.51617089629266

>  <path>  (480) 
/opt/xchem-fragalysis-2/maxwin/BulkDock/SCRATCH/511014/C17416-P85/C17416-P85.minimised.mol

>  <scratch_subdir>  (480) 
/opt/xchem-fragalysis-2/maxwin/BulkDock/SCRATCH/511014/C17416-P85

>  <fragmenstein_runtime>  (480) 
14.557849168777466

>  <fragmenstein_outcome>  (480) 
too moved

>  <fragmenstein_mode>  (480) 
expansion

>  <fragmenstein_error>  (480) 


$$$$
C17430-P46
     RDKit          3D

 51 54  0  0  0  0  0  0  0  0999 V2000
    0.9972  -17.0549   20.0285 O   0  0  0  0  0  0  0  0  0  0  0  0
    1.9713  -17.7400   20.2419 C   0  0  0  0  0  0  0  0  0  0  0  0
    2.2719  -17.9948   21.7772 C   0  0  0  0  0  0  0  0  0  0  0  0
    1.0062  -18.4446   22.6594 C   0  0  0  0  0  0  0  0  0  0  0  0
    0.9107  -19.6246   23.3203 C   0  0  0  0  0  0  0  0  0  0  0  0
   -0.2812  -20.0846   24.1431 C   0  0  0  0  0  0  0  0  0  0  0  0
   -1.5026  -19.3040   23.9477 N   0  0  0  0  0  0  0  0  0  0  0  0
   -1.1800  -17.8743   23.9383 C   0  0  0  0  0  0  0  0  0  0  0  0
   -0.1822  -17.4954   22.8078 C   0  0  0  0  0  0  0  0  0  0  0  0
    2.8504  -18.4502   19.3165 N   0  0  0  0  0  0  0  0  0  0  0  0
    2.7543  -18.6598   17.7110 C   0  0  0  0  0  0  0  0  0  0  0  0
    4.1017  -19.1283   17.1561 C   0  0  0  0  0  0  0  0  0  0  0  0
    4.2931  -19.6490   15.6978 C   0  0  0  0  0  0  0  0  0  0  0  0
    4.6257  -18.6768   14.5501 C   0  0  0  0  0  0  0  0  0  0  0  0
    4.1143  -19.1331   13.1729 C   0  0  0  0  0  0  0  0  0  0  0  0
    4.3371  -20.5618   12.9745 N   0  0  0  0  0  0  0  0  0  0  0  0
    3.6091  -21.3550   13.9718 C   0  0  0  0  0  0  0  0  0  0  0  0
    3.1802  -20.5981   15.2404 C   0  0  0  0  0  0  0  0  0  0  0  0
    4.7447  -17.9127   17.6935 C   0  0  0  0  0  0  0  0  0  0  0  0
    5.7475  -17.1292   17.1329 C   0  0  0  0  0  0  0  0  0  0  0  0
    6.0491  -15.9138   17.7315 C   0  0  0  0  0  0  0  0  0  0  0  0
    5.3799  -15.5228   18.8969 C   0  0  0  0  0  0  0  0  0  0  0  0
    4.3991  -16.3390   19.4899 C   0  0  0  0  0  0  0  0  0  0  0  0
    4.0481  -17.5385   18.8746 C   0  0  0  0  0  0  0  0  0  0  0  0
    2.6709  -17.0674   22.2020 H   0  0  0  0  0  0  0  0  0  0  0  0
    3.0478  -18.7647   21.8565 H   0  0  0  0  0  0  0  0  0  0  0  0
    1.7423  -20.3236   23.2725 H   0  0  0  0  0  0  0  0  0  0  0  0
    0.0066  -20.0708   25.2013 H   0  0  0  0  0  0  0  0  0  0  0  0
   -0.4999  -21.1258   23.8819 H   0  0  0  0  0  0  0  0  0  0  0  0
   -2.1477  -19.4976   24.7110 H   0  0  0  0  0  0  0  0  0  0  0  0
   -0.7638  -17.5805   24.9106 H   0  0  0  0  0  0  0  0  0  0  0  0
   -2.1021  -17.2983   23.8020 H   0  0  0  0  0  0  0  0  0  0  0  0
    0.1900  -16.4829   23.0025 H   0  0  0  0  0  0  0  0  0  0  0  0
   -0.7304  -17.4677   21.8594 H   0  0  0  0  0  0  0  0  0  0  0  0
    2.3213  -17.7722   17.2347 H   0  0  0  0  0  0  0  0  0  0  0  0
    2.0095  -19.4537   17.5994 H   0  0  0  0  0  0  0  0  0  0  0  0
    4.4297  -19.9674   17.7911 H   0  0  0  0  0  0  0  0  0  0  0  0
    5.1993  -20.2732   15.7756 H   0  0  0  0  0  0  0  0  0  0  0  0
    5.7169  -18.5809   14.4811 H   0  0  0  0  0  0  0  0  0  0  0  0
    4.2462  -17.6867   14.7774 H   0  0  0  0  0  0  0  0  0  0  0  0
    4.6448  -18.5784   12.3928 H   0  0  0  0  0  0  0  0  0  0  0  0
    3.0524  -18.9130   13.0346 H   0  0  0  0  0  0  0  0  0  0  0  0
    3.9839  -20.8223   12.0525 H   0  0  0  0  0  0  0  0  0  0  0  0
    2.7285  -21.8105   13.5168 H   0  0  0  0  0  0  0  0  0  0  0  0
    4.2612  -22.1879   14.2603 H   0  0  0  0  0  0  0  0  0  0  0  0
    2.9479  -21.3270   16.0260 H   0  0  0  0  0  0  0  0  0  0  0  0
    2.2620  -20.0323   15.0481 H   0  0  0  0  0  0  0  0  0  0  0  0
    6.2756  -17.4170   16.2316 H   0  0  0  0  0  0  0  0  0  0  0  0
    6.8068  -15.2700   17.2914 H   0  0  0  0  0  0  0  0  0  0  0  0
    5.6267  -14.5683   19.3571 H   0  0  0  0  0  0  0  0  0  0  0  0
    3.8978  -15.9787   20.3806 H   0  0  0  0  0  0  0  0  0  0  0  0
  1  2  2  0
  2  3  1  0
  3  4  1  0
  4  5  2  0
  5  6  1  0
  6  7  1  0
  7  8  1  0
  8  9  1  0
  2 10  1  0
 10 11  1  0
 11 12  1  0
 12 13  1  0
 13 14  1  0
 14 15  1  0
 15 16  1  0
 16 17  1  0
 17 18  1  0
 12 19  1  0
 19 20  2  0
 20 21  1  0
 21 22  2  0
 22 23  1  0
 23 24  2  0
  9  4  1  0
 24 10  1  0
 18 13  1  0
 24 19  1  0
  3 25  1  0
  3 26  1  0
  5 27  1  0
  6 28  1  0
  6 29  1  0
  7 30  1  0
  8 31  1  0
  8 32  1  0
  9 33  1  0
  9 34  1  0
 11 35  1  0
 11 36  1  0
 12 37  1  0
 13 38  1  0
 14 39  1  0
 14 40  1  0
 15 41  1  0
 15 42  1  0
 16 43  1  0
 17 44  1  0
 17 45  1  0
 18 46  1  0
 18 47  1  0
 20 48  1  0
 21 49  1  0
 22 50  1  0
 23 51  1  0
M  END
>  <Energy>  (481) 
140.06800140425463

>  <compound_id>  (481) 
17430

>  <target_id>  (481) 
1

>  <reference_id>  (481) 
46

>  <inspiration_ids>  (481) 
[46, 85]

>  <energy_score>  (481) 
11.548258266606851

>  <distance_score>  (481) 
12.396071494978978

>  <path>  (481) 
/opt/xchem-fragalysis-2/maxwin/BulkDock/SCRATCH/511014/C17430-P46/C17430-P46.minimised.mol

>  <scratch_subdir>  (481) 
/opt/xchem-fragalysis-2/maxwin/BulkDock/SCRATCH/511014/C17430-P46

>  <fragmenstein_runtime>  (481) 
28.939706087112427

>  <fragmenstein_outcome>  (481) 
too moved

>  <fragmenstein_mode>  (481) 
expansion

>  <fragmenstein_error>  (481) 


$$$$
C17430-P85
     RDKit          3D

 51 54  0  0  0  0  0  0  0  0999 V2000
   -3.1128  -16.9609   14.3186 O   0  0  0  0  0  0  0  0  0  0  0  0
   -2.6412  -17.9587   14.7923 C   0  0  0  0  0  0  0  0  0  0  0  0
   -3.5995  -18.3423   16.5543 C   0  0  0  0  0  0  0  0  0  0  0  0
   -4.8678  -18.7224   17.9528 C   0  0  0  0  0  0  0  0  0  0  0  0
   -5.4596  -19.8393   18.5310 C   0  0  0  0  0  0  0  0  0  0  0  0
   -6.4088  -20.0025   19.7240 C   0  0  0  0  0  0  0  0  0  0  0  0
   -6.9255  -18.7843   20.3019 N   0  0  0  0  0  0  0  0  0  0  0  0
   -5.8472  -17.8084   20.3190 C   0  0  0  0  0  0  0  0  0  0  0  0
   -5.3330  -17.5242   18.8748 C   0  0  0  0  0  0  0  0  0  0  0  0
   -1.1244  -18.8742   14.0374 N   0  0  0  0  0  0  0  0  0  0  0  0
   -0.0776  -18.5204   12.2677 C   0  0  0  0  0  0  0  0  0  0  0  0
   -0.7003  -19.7909   12.9116 C   0  0  0  0  0  0  0  0  0  0  0  0
   -2.5845  -20.3673   12.0037 C   0  0  0  0  0  0  0  0  0  0  0  0
   -3.2167  -19.6506   10.0902 C   0  0  0  0  0  0  0  0  0  0  0  0
   -2.0638  -19.7060    8.4708 C   0  0  0  0  0  0  0  0  0  0  0  0
   -0.5163  -20.3381    8.5657 N   0  0  0  0  0  0  0  0  0  0  0  0
    0.4596  -19.9234    9.8917 C   0  0  0  0  0  0  0  0  0  0  0  0
   -0.2417  -20.2336   11.7610 C   0  0  0  0  0  0  0  0  0  0  0  0
    1.0884  -19.5500   13.4019 C   0  0  0  0  0  0  0  0  0  0  0  0
    2.4018  -19.9554   12.8949 C   0  0  0  0  0  0  0  0  0  0  0  0
    3.5036  -19.6486   13.6460 C   0  0  0  0  0  0  0  0  0  0  0  0
    3.2139  -19.2626   14.9261 C   0  0  0  0  0  0  0  0  0  0  0  0
    1.8451  -19.0584   15.2673 C   0  0  0  0  0  0  0  0  0  0  0  0
    0.7333  -18.6955   14.3585 C   0  0  0  0  0  0  0  0  0  0  0  0
   -2.9361  -17.8689   17.2375 H   0  0  0  0  0  0  0  0  0  0  0  0
   -4.1127  -17.3589   16.4154 H   0  0  0  0  0  0  0  0  0  0  0  0
   -5.3299  -20.8404   18.1533 H   0  0  0  0  0  0  0  0  0  0  0  0
   -5.8789  -20.5728   20.4973 H   0  0  0  0  0  0  0  0  0  0  0  0
   -7.2549  -20.6254   19.4101 H   0  0  0  0  0  0  0  0  0  0  0  0
   -7.6795  -18.4290   19.7151 H   0  0  0  0  0  0  0  0  0  0  0  0
   -6.2148  -16.8725   20.7554 H   0  0  0  0  0  0  0  0  0  0  0  0
   -5.0347  -18.1512   20.9703 H   0  0  0  0  0  0  0  0  0  0  0  0
   -4.4667  -16.9058   18.9957 H   0  0  0  0  0  0  0  0  0  0  0  0
   -6.1202  -16.9354   18.3961 H   0  0  0  0  0  0  0  0  0  0  0  0
    0.9683  -18.1619   12.1647 H   0  0  0  0  0  0  0  0  0  0  0  0
   -0.5048  -17.7150   11.6446 H   0  0  0  0  0  0  0  0  0  0  0  0
   -0.5774  -20.5486   13.6735 H   0  0  0  0  0  0  0  0  0  0  0  0
   -3.4553  -20.3603   12.7313 H   0  0  0  0  0  0  0  0  0  0  0  0
   -3.1831  -18.5664    9.9736 H   0  0  0  0  0  0  0  0  0  0  0  0
   -4.1398  -20.1751    9.7251 H   0  0  0  0  0  0  0  0  0  0  0  0
   -2.5995  -20.2563    7.6781 H   0  0  0  0  0  0  0  0  0  0  0  0
   -1.9932  -18.6748    8.0850 H   0  0  0  0  0  0  0  0  0  0  0  0
   -0.0245  -19.9364    7.7650 H   0  0  0  0  0  0  0  0  0  0  0  0
    0.8707  -18.9023    9.7974 H   0  0  0  0  0  0  0  0  0  0  0  0
    1.3328  -20.5840    9.7309 H   0  0  0  0  0  0  0  0  0  0  0  0
    0.5464  -20.8041   12.3118 H   0  0  0  0  0  0  0  0  0  0  0  0
    0.6264  -20.9221   11.3140 H   0  0  0  0  0  0  0  0  0  0  0  0
    2.5395  -20.5014   11.9691 H   0  0  0  0  0  0  0  0  0  0  0  0
    4.5063  -19.9011   13.3301 H   0  0  0  0  0  0  0  0  0  0  0  0
    3.9724  -19.3088   15.6994 H   0  0  0  0  0  0  0  0  0  0  0  0
    1.6589  -19.3568   16.3022 H   0  0  0  0  0  0  0  0  0  0  0  0
  1  2  2  0
  2  3  1  0
  3  4  1  0
  4  5  2  0
  5  6  1  0
  6  7  1  0
  7  8  1  0
  8  9  1  0
  2 10  1  0
 10 11  1  0
 11 12  1  0
 12 13  1  0
 13 14  1  0
 14 15  1  0
 15 16  1  0
 16 17  1  0
 17 18  1  0
 12 19  1  0
 19 20  2  0
 20 21  1  0
 21 22  2  0
 22 23  1  0
 23 24  2  0
  9  4  1  0
 24 10  1  0
 18 13  1  0
 24 19  1  0
  3 25  1  0
  3 26  1  0
  5 27  1  0
  6 28  1  0
  6 29  1  0
  7 30  1  0
  8 31  1  0
  8 32  1  0
  9 33  1  0
  9 34  1  0
 11 35  1  0
 11 36  1  0
 12 37  1  0
 13 38  1  0
 14 39  1  0
 14 40  1  0
 15 41  1  0
 15 42  1  0
 16 43  1  0
 17 44  1  0
 17 45  1  0
 18 46  1  0
 18 47  1  0
 20 48  1  0
 21 49  1  0
 22 50  1  0
 23 51  1  0
M  END
>  <Energy>  (482) 
1918.9694590743657

>  <compound_id>  (482) 
17430

>  <target_id>  (482) 
1

>  <reference_id>  (482) 
85

>  <inspiration_ids>  (482) 
[46, 85]

>  <energy_score>  (482) 
1790.449715936748

>  <distance_score>  (482) 
11.070084083941744

>  <path>  (482) 
/opt/xchem-fragalysis-2/maxwin/BulkDock/SCRATCH/511014/C17430-P85/C17430-P85.minimised.mol

>  <scratch_subdir>  (482) 
/opt/xchem-fragalysis-2/maxwin/BulkDock/SCRATCH/511014/C17430-P85

>  <fragmenstein_runtime>  (482) 
14.956598997116089

>  <fragmenstein_outcome>  (482) 
too moved

>  <fragmenstein_mode>  (482) 
expansion

>  <fragmenstein_error>  (482) 


$$$$
C17431-P46
     RDKit          3D

 45 48  0  0  0  0  0  0  0  0999 V2000
  -11.9576  -20.8757   27.6793 O   0  0  0  0  0  0  0  0  0  0  0  0
  -12.2421  -20.1390   28.6774 C   0  0  0  0  0  0  0  0  0  0  0  0
  -12.6527  -21.1121   29.9384 C   0  0  0  0  0  0  0  0  0  0  0  0
  -12.7387  -22.3773   29.3867 C   0  0  0  0  0  0  0  0  0  0  0  0
  -11.8717  -23.5752   29.6889 C   0  0  0  0  0  0  0  0  0  0  0  0
  -11.4298  -23.7651   31.0477 N   0  0  0  0  0  0  0  0  0  0  0  0
  -11.7417  -22.6418   31.9048 C   0  0  0  0  0  0  0  0  0  0  0  0
  -11.6984  -21.2881   31.1896 C   0  0  0  0  0  0  0  0  0  0  0  0
  -11.9756  -18.1708   28.6318 N   0  0  0  0  0  0  0  0  0  0  0  0
  -11.1646  -17.0330   27.3003 C   0  0  0  0  0  0  0  0  0  0  0  0
  -11.1674  -16.4933   25.7953 C   0  0  0  0  0  0  0  0  0  0  0  0
  -12.0805  -15.3221   25.7191 C   0  0  0  0  0  0  0  0  0  0  0  0
  -12.3166  -15.0374   24.2167 C   0  0  0  0  0  0  0  0  0  0  0  0
  -13.4804  -14.7417   23.6546 N   0  0  0  0  0  0  0  0  0  0  0  0
  -13.3129  -14.6022   22.2748 N   0  0  0  0  0  0  0  0  0  0  0  0
  -12.0504  -14.8110   22.0154 C   0  0  0  0  0  0  0  0  0  0  0  0
  -11.3918  -15.0743   23.1819 N   0  0  0  0  0  0  0  0  0  0  0  0
   -9.9807  -15.3300   22.9350 C   0  0  0  0  0  0  0  0  0  0  0  0
   -9.7804  -14.8451   21.4733 C   0  0  0  0  0  0  0  0  0  0  0  0
  -11.1767  -14.8250   20.8234 C   0  0  0  0  0  0  0  0  0  0  0  0
  -13.2833  -15.7075   26.6494 C   0  0  0  0  0  0  0  0  0  0  0  0
  -13.1604  -16.7919   28.0997 C   0  0  0  0  0  0  0  0  0  0  0  0
  -13.0937  -22.5435   28.3705 H   0  0  0  0  0  0  0  0  0  0  0  0
  -10.9889  -23.5089   29.0406 H   0  0  0  0  0  0  0  0  0  0  0  0
  -12.3834  -24.4774   29.3418 H   0  0  0  0  0  0  0  0  0  0  0  0
  -11.8890  -24.5897   31.4444 H   0  0  0  0  0  0  0  0  0  0  0  0
  -11.0168  -22.6359   32.7257 H   0  0  0  0  0  0  0  0  0  0  0  0
  -12.7211  -22.7607   32.3785 H   0  0  0  0  0  0  0  0  0  0  0  0
  -11.9202  -20.6213   32.0194 H   0  0  0  0  0  0  0  0  0  0  0  0
  -10.6768  -21.0821   30.8694 H   0  0  0  0  0  0  0  0  0  0  0  0
  -11.2378  -16.0178   27.6774 H   0  0  0  0  0  0  0  0  0  0  0  0
  -10.1399  -17.3935   27.1299 H   0  0  0  0  0  0  0  0  0  0  0  0
  -10.1486  -16.1334   25.5793 H   0  0  0  0  0  0  0  0  0  0  0  0
  -11.3965  -17.1866   24.9862 H   0  0  0  0  0  0  0  0  0  0  0  0
  -11.5984  -14.4297   26.1402 H   0  0  0  0  0  0  0  0  0  0  0  0
   -9.3824  -14.7650   23.6531 H   0  0  0  0  0  0  0  0  0  0  0  0
   -9.8161  -16.4066   23.0339 H   0  0  0  0  0  0  0  0  0  0  0  0
   -9.0745  -15.4665   20.9237 H   0  0  0  0  0  0  0  0  0  0  0  0
   -9.3928  -13.8187   21.4843 H   0  0  0  0  0  0  0  0  0  0  0  0
  -11.3136  -13.9398   20.1965 H   0  0  0  0  0  0  0  0  0  0  0  0
  -11.3584  -15.7182   20.2218 H   0  0  0  0  0  0  0  0  0  0  0  0
  -14.0587  -16.1739   26.0196 H   0  0  0  0  0  0  0  0  0  0  0  0
  -13.7570  -14.7912   27.0272 H   0  0  0  0  0  0  0  0  0  0  0  0
  -14.1771  -17.1459   27.8588 H   0  0  0  0  0  0  0  0  0  0  0  0
  -13.0380  -16.0305   28.8896 H   0  0  0  0  0  0  0  0  0  0  0  0
  1  2  2  0
  2  3  1  0
  3  4  2  0
  4  5  1  0
  5  6  1  0
  6  7  1  0
  7  8  1  0
  2  9  1  0
  9 10  1  0
 10 11  1  0
 11 12  1  0
 12 13  1  0
 13 14  2  0
 14 15  1  0
 15 16  2  0
 16 17  1  0
 17 18  1  0
 18 19  1  0
 19 20  1  0
 12 21  1  0
 21 22  1  0
  8  3  1  0
 22  9  1  0
 17 13  1  0
 20 16  1  0
  4 23  1  0
  5 24  1  0
  5 25  1  0
  6 26  1  0
  7 27  1  0
  7 28  1  0
  8 29  1  0
  8 30  1  0
 10 31  1  0
 10 32  1  0
 11 33  1  0
 11 34  1  0
 12 35  1  0
 18 36  1  0
 18 37  1  0
 19 38  1  0
 19 39  1  0
 20 40  1  0
 20 41  1  0
 21 42  1  0
 21 43  1  0
 22 44  1  0
 22 45  1  0
M  END
>  <Energy>  (483) 
486.37930884340602

>  <compound_id>  (483) 
17431

>  <target_id>  (483) 
1

>  <reference_id>  (483) 
46

>  <inspiration_ids>  (483) 
[46, 85]

>  <energy_score>  (483) 
436.6396742175737

>  <distance_score>  (483) 
11.993989074437621

>  <path>  (483) 
/opt/xchem-fragalysis-2/maxwin/BulkDock/SCRATCH/511014/C17431-P46/C17431-P46.minimised.mol

>  <scratch_subdir>  (483) 
/opt/xchem-fragalysis-2/maxwin/BulkDock/SCRATCH/511014/C17431-P46

>  <fragmenstein_runtime>  (483) 
22.35596013069153

>  <fragmenstein_outcome>  (483) 
too moved

>  <fragmenstein_mode>  (483) 
expansion

>  <fragmenstein_error>  (483) 


$$$$
C17431-P85
     RDKit          3D

 45 48  0  0  0  0  0  0  0  0999 V2000
  -11.9940  -26.1194   26.8440 O   0  0  0  0  0  0  0  0  0  0  0  0
  -11.6610  -24.9636   26.9062 C   0  0  0  0  0  0  0  0  0  0  0  0
  -11.9692  -24.2775   28.2229 C   0  0  0  0  0  0  0  0  0  0  0  0
  -11.8987  -22.9606   28.4791 C   0  0  0  0  0  0  0  0  0  0  0  0
  -12.2926  -22.3680   29.8012 C   0  0  0  0  0  0  0  0  0  0  0  0
  -12.3324  -23.2986   30.9262 N   0  0  0  0  0  0  0  0  0  0  0  0
  -12.9675  -24.5655   30.5945 C   0  0  0  0  0  0  0  0  0  0  0  0
  -12.3859  -25.2290   29.3377 C   0  0  0  0  0  0  0  0  0  0  0  0
  -10.9348  -24.1550   25.9779 N   0  0  0  0  0  0  0  0  0  0  0  0
  -10.2335  -24.5316   24.6439 C   0  0  0  0  0  0  0  0  0  0  0  0
   -9.6105  -23.7584   23.3467 C   0  0  0  0  0  0  0  0  0  0  0  0
  -10.3922  -22.5217   22.8752 C   0  0  0  0  0  0  0  0  0  0  0  0
   -9.6510  -21.4303   22.0376 C   0  0  0  0  0  0  0  0  0  0  0  0
   -9.8932  -21.5771   20.7016 N   0  0  0  0  0  0  0  0  0  0  0  0
   -9.1095  -20.7092   19.8912 N   0  0  0  0  0  0  0  0  0  0  0  0
   -8.0816  -20.0732   20.6404 C   0  0  0  0  0  0  0  0  0  0  0  0
   -8.3092  -20.3989   22.1185 N   0  0  0  0  0  0  0  0  0  0  0  0
   -7.8409  -19.0759   22.6660 C   0  0  0  0  0  0  0  0  0  0  0  0
   -7.0380  -18.3237   21.5634 C   0  0  0  0  0  0  0  0  0  0  0  0
   -6.9293  -19.1816   20.3406 C   0  0  0  0  0  0  0  0  0  0  0  0
  -11.7534  -22.2885   23.6290 C   0  0  0  0  0  0  0  0  0  0  0  0
  -12.0128  -23.3743   24.9287 C   0  0  0  0  0  0  0  0  0  0  0  0
  -11.6194  -22.2570   27.7080 H   0  0  0  0  0  0  0  0  0  0  0  0
  -13.2447  -21.8431   29.7146 H   0  0  0  0  0  0  0  0  0  0  0  0
  -11.5755  -21.5851   30.0470 H   0  0  0  0  0  0  0  0  0  0  0  0
  -12.8137  -22.8665   31.7111 H   0  0  0  0  0  0  0  0  0  0  0  0
  -12.8351  -25.2523   31.4392 H   0  0  0  0  0  0  0  0  0  0  0  0
  -14.0501  -24.4335   30.5043 H   0  0  0  0  0  0  0  0  0  0  0  0
  -11.4973  -25.8069   29.6254 H   0  0  0  0  0  0  0  0  0  0  0  0
  -13.1334  -25.9439   28.9729 H   0  0  0  0  0  0  0  0  0  0  0  0
  -10.3057  -25.6287   24.5003 H   0  0  0  0  0  0  0  0  0  0  0  0
   -9.2786  -24.7326   25.1428 H   0  0  0  0  0  0  0  0  0  0  0  0
   -9.5164  -24.4728   22.5177 H   0  0  0  0  0  0  0  0  0  0  0  0
   -8.5388  -23.5468   23.4752 H   0  0  0  0  0  0  0  0  0  0  0  0
  -10.8220  -22.9605   21.9601 H   0  0  0  0  0  0  0  0  0  0  0  0
   -8.6753  -18.4803   23.0458 H   0  0  0  0  0  0  0  0  0  0  0  0
   -7.1490  -19.1551   23.4673 H   0  0  0  0  0  0  0  0  0  0  0  0
   -7.5422  -17.3792   21.3940 H   0  0  0  0  0  0  0  0  0  0  0  0
   -6.0428  -18.0515   21.8581 H   0  0  0  0  0  0  0  0  0  0  0  0
   -6.9514  -18.6382   19.3960 H   0  0  0  0  0  0  0  0  0  0  0  0
   -5.9793  -19.7246   20.3306 H   0  0  0  0  0  0  0  0  0  0  0  0
  -12.6193  -22.3706   22.9542 H   0  0  0  0  0  0  0  0  0  0  0  0
  -11.8594  -21.2415   23.9587 H   0  0  0  0  0  0  0  0  0  0  0  0
  -12.9553  -23.9409   24.8241 H   0  0  0  0  0  0  0  0  0  0  0  0
  -12.4327  -22.6654   25.6647 H   0  0  0  0  0  0  0  0  0  0  0  0
  1  2  2  0
  2  3  1  0
  3  4  2  0
  4  5  1  0
  5  6  1  0
  6  7  1  0
  7  8  1  0
  2  9  1  0
  9 10  1  0
 10 11  1  0
 11 12  1  0
 12 13  1  0
 13 14  2  0
 14 15  1  0
 15 16  2  0
 16 17  1  0
 17 18  1  0
 18 19  1  0
 19 20  1  0
 12 21  1  0
 21 22  1  0
  8  3  1  0
 22  9  1  0
 17 13  1  0
 20 16  1  0
  4 23  1  0
  5 24  1  0
  5 25  1  0
  6 26  1  0
  7 27  1  0
  7 28  1  0
  8 29  1  0
  8 30  1  0
 10 31  1  0
 10 32  1  0
 11 33  1  0
 11 34  1  0
 12 35  1  0
 18 36  1  0
 18 37  1  0
 19 38  1  0
 19 39  1  0
 20 40  1  0
 20 41  1  0
 21 42  1  0
 21 43  1  0
 22 44  1  0
 22 45  1  0
M  END
>  <Energy>  (484) 
231.46976544752934

>  <compound_id>  (484) 
17431

>  <target_id>  (484) 
1

>  <reference_id>  (484) 
85

>  <inspiration_ids>  (484) 
[46, 85]

>  <energy_score>  (484) 
181.73013082170394

>  <distance_score>  (484) 
11.033809649437275

>  <path>  (484) 
/opt/xchem-fragalysis-2/maxwin/BulkDock/SCRATCH/511014/C17431-P85/C17431-P85.minimised.mol

>  <scratch_subdir>  (484) 
/opt/xchem-fragalysis-2/maxwin/BulkDock/SCRATCH/511014/C17431-P85

>  <fragmenstein_runtime>  (484) 
14.07660436630249

>  <fragmenstein_outcome>  (484) 
too moved

>  <fragmenstein_mode>  (484) 
expansion

>  <fragmenstein_error>  (484) 


$$$$
C6748-P68
     RDKit          3D

 47 50  0  0  0  0  0  0  0  0999 V2000
   -2.8670  -21.6464   32.3461 O   0  0  0  0  0  0  0  0  0  0  0  0
   -1.8139  -21.7405   31.8473 C   0  0  0  0  0  0  0  0  0  0  0  0
   -1.2661  -22.9649   30.9753 N   0  0  0  0  0  0  0  0  0  0  0  0
   -1.8886  -24.3221   30.6577 C   0  0  0  0  0  0  0  0  0  0  0  0
   -2.7195  -24.6070   29.3099 C   0  0  0  0  0  0  0  0  0  0  0  0
   -3.1913  -26.0638   28.9608 C   0  0  0  0  0  0  0  0  0  0  0  0
   -4.0985  -26.7647   29.7684 C   0  0  0  0  0  0  0  0  0  0  0  0
   -4.5531  -28.0703   29.4411 C   0  0  0  0  0  0  0  0  0  0  0  0
   -4.0952  -28.7273   28.2783 C   0  0  0  0  0  0  0  0  0  0  0  0
   -4.4036  -30.0243   27.8746 N   0  0  0  0  0  0  0  0  0  0  0  0
   -3.7541  -30.3072   26.7682 C   0  0  0  0  0  0  0  0  0  0  0  0
   -2.8334  -29.0341   26.0880 S   0  0  0  0  0  0  0  0  0  0  0  0
   -3.2244  -28.0246   27.4427 C   0  0  0  0  0  0  0  0  0  0  0  0
   -2.7832  -26.7041   27.7594 C   0  0  0  0  0  0  0  0  0  0  0  0
   -0.4718  -20.5492   31.7361 N   0  0  0  0  0  0  0  0  0  0  0  0
    0.8743  -20.8151   33.4043 C   0  0  0  0  0  0  0  0  0  0  0  0
    2.0422  -19.3725   34.1059 C   0  0  0  0  0  0  0  0  0  0  0  0
    1.9131  -18.0969   33.2998 N   0  0  0  0  0  0  0  0  0  0  0  0
    1.1892  -19.1714   32.8425 C   0  0  0  0  0  0  0  0  0  0  0  0
   -0.2631  -19.5232   34.0926 C   0  0  0  0  0  0  0  0  0  0  0  0
   -0.9516  -21.1299   34.0081 C   0  0  0  0  0  0  0  0  0  0  0  0
   -0.1355  -22.3764   33.0008 N   0  0  0  0  0  0  0  0  0  0  0  0
    1.1118  -21.9602   31.7763 C   0  0  0  0  0  0  0  0  0  0  0  0
    1.7873  -20.3442   31.6388 C   0  0  0  0  0  0  0  0  0  0  0  0
    0.6216  -17.5271   32.8188 C   0  0  0  0  0  0  0  0  0  0  0  0
   -0.5359  -18.8045   32.2460 C   0  0  0  0  0  0  0  0  0  0  0  0
   -0.3706  -22.7312   30.6132 H   0  0  0  0  0  0  0  0  0  0  0  0
   -1.0539  -25.0308   30.6951 H   0  0  0  0  0  0  0  0  0  0  0  0
   -2.5483  -24.5428   31.5042 H   0  0  0  0  0  0  0  0  0  0  0  0
   -2.1003  -24.2471   28.4782 H   0  0  0  0  0  0  0  0  0  0  0  0
   -3.6107  -23.9666   29.3182 H   0  0  0  0  0  0  0  0  0  0  0  0
   -4.4732  -26.3027   30.6817 H   0  0  0  0  0  0  0  0  0  0  0  0
   -5.2422  -28.5854   30.1045 H   0  0  0  0  0  0  0  0  0  0  0  0
   -3.8201  -31.2765   26.2917 H   0  0  0  0  0  0  0  0  0  0  0  0
   -2.1063  -26.1955   27.0761 H   0  0  0  0  0  0  0  0  0  0  0  0
    0.7912  -21.3947   34.4271 H   0  0  0  0  0  0  0  0  0  0  0  0
    1.8389  -21.4755   33.3549 H   0  0  0  0  0  0  0  0  0  0  0  0
    3.0801  -19.7667   34.0559 H   0  0  0  0  0  0  0  0  0  0  0  0
    1.8261  -19.2239   35.1838 H   0  0  0  0  0  0  0  0  0  0  0  0
   -0.5333  -18.8211   34.8815 H   0  0  0  0  0  0  0  0  0  0  0  0
   -1.7042  -21.5432   34.6730 H   0  0  0  0  0  0  0  0  0  0  0  0
    1.5277  -22.8339   31.2804 H   0  0  0  0  0  0  0  0  0  0  0  0
    2.6734  -20.1477   31.0473 H   0  0  0  0  0  0  0  0  0  0  0  0
    0.7968  -16.8492   31.9685 H   0  0  0  0  0  0  0  0  0  0  0  0
    0.1206  -16.9363   33.6022 H   0  0  0  0  0  0  0  0  0  0  0  0
   -0.5127  -18.4671   31.2012 H   0  0  0  0  0  0  0  0  0  0  0  0
   -1.5749  -18.5806   32.5500 H   0  0  0  0  0  0  0  0  0  0  0  0
  1  2  2  0
  2  3  1  0
  3  4  1  0
  4  5  1  0
  5  6  1  0
  6  7  2  0
  7  8  1  0
  8  9  2  0
  9 10  1  0
 10 11  2  0
 11 12  1  0
 12 13  1  0
 13 14  2  0
  2 15  1  0
 15 16  1  0
 16 17  1  0
 17 18  1  0
 18 19  1  0
 19 20  2  0
 20 21  1  0
 21 22  2  0
 22 23  1  0
 23 24  2  0
 18 25  1  0
 25 26  1  0
 14  6  1  0
 26 15  1  0
 13  9  1  0
 24 19  1  0
  3 27  1  0
  4 28  1  0
  4 29  1  0
  5 30  1  0
  5 31  1  0
  7 32  1  0
  8 33  1  0
 11 34  1  0
 14 35  1  0
 16 36  1  0
 16 37  1  0
 17 38  1  0
 17 39  1  0
 20 40  1  0
 21 41  1  0
 23 42  1  0
 24 43  1  0
 25 44  1  0
 25 45  1  0
 26 46  1  0
 26 47  1  0
M  END
>  <Energy>  (485) 
1480.8004164977913

>  <compound_id>  (485) 
6748

>  <target_id>  (485) 
1

>  <reference_id>  (485) 
68

>  <inspiration_ids>  (485) 
[68, 56]

>  <energy_score>  (485) 
1371.15851879807

>  <distance_score>  (485) 
13.600042003165179

>  <path>  (485) 
/opt/xchem-fragalysis-2/maxwin/BulkDock/SCRATCH/511014/C6748-P68/C6748-P68.minimised.mol

>  <scratch_subdir>  (485) 
/opt/xchem-fragalysis-2/maxwin/BulkDock/SCRATCH/511014/C6748-P68

>  <fragmenstein_runtime>  (485) 
22.64551830291748

>  <fragmenstein_outcome>  (485) 
too moved

>  <fragmenstein_mode>  (485) 
expansion

>  <fragmenstein_error>  (485) 


$$$$
C6748-P56
     RDKit          3D

 47 50  0  0  0  0  0  0  0  0999 V2000
   -2.5898  -22.0120   20.9185 O   0  0  0  0  0  0  0  0  0  0  0  0
   -3.2269  -22.0713   21.9080 C   0  0  0  0  0  0  0  0  0  0  0  0
   -3.5423  -23.2323   22.7839 N   0  0  0  0  0  0  0  0  0  0  0  0
   -3.2369  -24.6753   22.6273 C   0  0  0  0  0  0  0  0  0  0  0  0
   -4.5111  -25.5638   22.3899 C   0  0  0  0  0  0  0  0  0  0  0  0
   -4.4332  -27.0791   22.6222 C   0  0  0  0  0  0  0  0  0  0  0  0
   -4.3461  -27.5953   23.9234 C   0  0  0  0  0  0  0  0  0  0  0  0
   -4.5078  -28.9693   24.1834 C   0  0  0  0  0  0  0  0  0  0  0  0
   -4.7585  -29.8655   23.1271 C   0  0  0  0  0  0  0  0  0  0  0  0
   -4.9725  -31.2216   23.2504 N   0  0  0  0  0  0  0  0  0  0  0  0
   -5.1981  -31.7421   22.0662 C   0  0  0  0  0  0  0  0  0  0  0  0
   -5.1042  -30.6694   20.7382 S   0  0  0  0  0  0  0  0  0  0  0  0
   -4.8020  -29.3631   21.8264 C   0  0  0  0  0  0  0  0  0  0  0  0
   -4.6288  -27.9849   21.5550 C   0  0  0  0  0  0  0  0  0  0  0  0
   -4.0289  -21.0383   22.5880 N   0  0  0  0  0  0  0  0  0  0  0  0
   -3.1402  -20.2668   23.6465 C   0  0  0  0  0  0  0  0  0  0  0  0
   -2.0711  -19.0704   23.4194 C   0  0  0  0  0  0  0  0  0  0  0  0
   -2.7330  -17.9587   22.7309 N   0  0  0  0  0  0  0  0  0  0  0  0
   -2.3997  -16.6147   22.7102 C   0  0  0  0  0  0  0  0  0  0  0  0
   -1.1049  -16.1330   22.7841 C   0  0  0  0  0  0  0  0  0  0  0  0
   -0.8690  -14.7572   22.7763 C   0  0  0  0  0  0  0  0  0  0  0  0
   -1.8286  -13.8156   22.6721 N   0  0  0  0  0  0  0  0  0  0  0  0
   -3.0782  -14.2762   22.5687 C   0  0  0  0  0  0  0  0  0  0  0  0
   -3.3977  -15.6303   22.5844 C   0  0  0  0  0  0  0  0  0  0  0  0
   -3.4409  -18.5306   21.6020 C   0  0  0  0  0  0  0  0  0  0  0  0
   -4.3734  -19.6292   22.1694 C   0  0  0  0  0  0  0  0  0  0  0  0
   -4.1858  -22.9386   23.5073 H   0  0  0  0  0  0  0  0  0  0  0  0
   -2.7385  -24.9806   23.5527 H   0  0  0  0  0  0  0  0  0  0  0  0
   -2.5343  -24.7938   21.7966 H   0  0  0  0  0  0  0  0  0  0  0  0
   -5.3176  -25.1894   23.0358 H   0  0  0  0  0  0  0  0  0  0  0  0
   -4.8613  -25.3743   21.3665 H   0  0  0  0  0  0  0  0  0  0  0  0
   -4.2133  -26.9232   24.7689 H   0  0  0  0  0  0  0  0  0  0  0  0
   -4.4788  -29.3482   25.1996 H   0  0  0  0  0  0  0  0  0  0  0  0
   -5.4168  -32.7921   21.9291 H   0  0  0  0  0  0  0  0  0  0  0  0
   -4.7170  -27.6272   20.5321 H   0  0  0  0  0  0  0  0  0  0  0  0
   -2.5290  -21.0647   24.0951 H   0  0  0  0  0  0  0  0  0  0  0  0
   -3.8316  -20.0103   24.4524 H   0  0  0  0  0  0  0  0  0  0  0  0
   -1.6941  -18.7546   24.3982 H   0  0  0  0  0  0  0  0  0  0  0  0
   -1.2318  -19.4452   22.8218 H   0  0  0  0  0  0  0  0  0  0  0  0
   -0.2664  -16.8160   22.7749 H   0  0  0  0  0  0  0  0  0  0  0  0
    0.1456  -14.3724   22.8266 H   0  0  0  0  0  0  0  0  0  0  0  0
   -3.8501  -13.5193   22.4718 H   0  0  0  0  0  0  0  0  0  0  0  0
   -4.4424  -15.9095   22.4994 H   0  0  0  0  0  0  0  0  0  0  0  0
   -4.0564  -17.7883   21.0808 H   0  0  0  0  0  0  0  0  0  0  0  0
   -2.7425  -18.9536   20.8693 H   0  0  0  0  0  0  0  0  0  0  0  0
   -5.0181  -19.8526   21.3042 H   0  0  0  0  0  0  0  0  0  0  0  0
   -5.0952  -19.2149   22.8906 H   0  0  0  0  0  0  0  0  0  0  0  0
  1  2  2  0
  2  3  1  0
  3  4  1  0
  4  5  1  0
  5  6  1  0
  6  7  2  0
  7  8  1  0
  8  9  2  0
  9 10  1  0
 10 11  2  0
 11 12  1  0
 12 13  1  0
 13 14  2  0
  2 15  1  0
 15 16  1  0
 16 17  1  0
 17 18  1  0
 18 19  1  0
 19 20  2  0
 20 21  1  0
 21 22  2  0
 22 23  1  0
 23 24  2  0
 18 25  1  0
 25 26  1  0
 14  6  1  0
 26 15  1  0
 13  9  1  0
 24 19  1  0
  3 27  1  0
  4 28  1  0
  4 29  1  0
  5 30  1  0
  5 31  1  0
  7 32  1  0
  8 33  1  0
 11 34  1  0
 14 35  1  0
 16 36  1  0
 16 37  1  0
 17 38  1  0
 17 39  1  0
 20 40  1  0
 21 41  1  0
 23 42  1  0
 24 43  1  0
 25 44  1  0
 25 45  1  0
 26 46  1  0
 26 47  1  0
M  END
>  <Energy>  (486) 
118.49076208067828

>  <compound_id>  (486) 
6748

>  <target_id>  (486) 
1

>  <reference_id>  (486) 
56

>  <inspiration_ids>  (486) 
[68, 56]

>  <energy_score>  (486) 
8.84886438095998

>  <distance_score>  (486) 
14.696455524265824

>  <path>  (486) 
/opt/xchem-fragalysis-2/maxwin/BulkDock/SCRATCH/511014/C6748-P56/C6748-P56.minimised.mol

>  <scratch_subdir>  (486) 
/opt/xchem-fragalysis-2/maxwin/BulkDock/SCRATCH/511014/C6748-P56

>  <fragmenstein_runtime>  (486) 
17.256983280181885

>  <fragmenstein_outcome>  (486) 
too moved

>  <fragmenstein_mode>  (486) 
expansion

>  <fragmenstein_error>  (486) 


$$$$
C6749-P68
     RDKit          3D

 41 44  0  0  0  0  0  0  0  0999 V2000
   -0.2886  -16.7191   32.5219 O   0  0  0  0  0  0  0  0  0  0  0  0
   -1.4627  -16.4647   32.4190 C   0  0  0  0  0  0  0  0  0  0  0  0
   -2.8485  -17.7171   32.4820 N   0  0  0  0  0  0  0  0  0  0  0  0
   -2.8558  -19.5749   32.8304 C   0  0  0  0  0  0  0  0  0  0  0  0
   -4.2460  -20.4543   33.1852 N   0  0  0  0  0  0  0  0  0  0  0  0
   -4.6475  -22.1466   32.5048 C   0  0  0  0  0  0  0  0  0  0  0  0
   -5.5340  -23.5086   32.7937 C   0  0  0  0  0  0  0  0  0  0  0  0
   -6.1670  -24.5162   31.6278 C   0  0  0  0  0  0  0  0  0  0  0  0
   -5.9725  -24.2033   29.9350 C   0  0  0  0  0  0  0  0  0  0  0  0
   -4.8985  -23.0209   29.6332 C   0  0  0  0  0  0  0  0  0  0  0  0
   -3.7918  -22.2700   31.0817 C   0  0  0  0  0  0  0  0  0  0  0  0
   -3.0792  -20.7297   31.4717 S   0  0  0  0  0  0  0  0  0  0  0  0
   -2.3311  -14.8024   32.1099 N   0  0  0  0  0  0  0  0  0  0  0  0
   -1.4944  -12.9339   32.0327 C   0  0  0  0  0  0  0  0  0  0  0  0
   -1.4317  -11.0539   31.2751 C   0  0  0  0  0  0  0  0  0  0  0  0
   -1.5579  -11.1628   29.9316 N   0  0  0  0  0  0  0  0  0  0  0  0
   -0.9194   -9.7146   29.8106 C   0  0  0  0  0  0  0  0  0  0  0  0
    0.2256   -9.4757   29.1473 C   0  0  0  0  0  0  0  0  0  0  0  0
    1.0818   -8.3887   29.3694 C   0  0  0  0  0  0  0  0  0  0  0  0
    0.8441   -7.3443   30.1791 N   0  0  0  0  0  0  0  0  0  0  0  0
   -0.2545   -7.4569   30.9089 C   0  0  0  0  0  0  0  0  0  0  0  0
   -1.0825   -8.5705   30.8096 C   0  0  0  0  0  0  0  0  0  0  0  0
   -2.6937  -12.5710   29.4389 C   0  0  0  0  0  0  0  0  0  0  0  0
   -2.6110  -14.4550   30.1405 C   0  0  0  0  0  0  0  0  0  0  0  0
   -3.7275  -17.2447   32.4543 H   0  0  0  0  0  0  0  0  0  0  0  0
   -5.9400  -23.5907   33.8018 H   0  0  0  0  0  0  0  0  0  0  0  0
   -6.8868  -25.2800   31.9248 H   0  0  0  0  0  0  0  0  0  0  0  0
   -6.6132  -24.6601   29.1909 H   0  0  0  0  0  0  0  0  0  0  0  0
   -5.1682  -22.4686   28.7403 H   0  0  0  0  0  0  0  0  0  0  0  0
   -2.3627  -13.3904   31.5720 H   0  0  0  0  0  0  0  0  0  0  0  0
   -0.5691  -13.3052   32.8818 H   0  0  0  0  0  0  0  0  0  0  0  0
   -0.5842  -10.4622   31.5809 H   0  0  0  0  0  0  0  0  0  0  0  0
   -2.1744  -10.4039   31.7455 H   0  0  0  0  0  0  0  0  0  0  0  0
    0.6431  -10.2660   28.6201 H   0  0  0  0  0  0  0  0  0  0  0  0
    2.0043   -8.3331   28.7994 H   0  0  0  0  0  0  0  0  0  0  0  0
   -0.4465   -6.6578   31.6167 H   0  0  0  0  0  0  0  0  0  0  0  0
   -1.8784   -8.5537   31.5603 H   0  0  0  0  0  0  0  0  0  0  0  0
   -2.6536  -12.6731   28.3480 H   0  0  0  0  0  0  0  0  0  0  0  0
   -3.6946  -12.2138   29.6729 H   0  0  0  0  0  0  0  0  0  0  0  0
   -1.9314  -15.0131   29.4636 H   0  0  0  0  0  0  0  0  0  0  0  0
   -3.6061  -14.8765   29.8912 H   0  0  0  0  0  0  0  0  0  0  0  0
  1  2  2  0
  2  3  1  0
  3  4  1  0
  4  5  2  0
  5  6  1  0
  6  7  2  0
  7  8  1  0
  8  9  2  0
  9 10  1  0
 10 11  2  0
 11 12  1  0
  2 13  1  0
 13 14  1  0
 14 15  1  0
 15 16  1  0
 16 17  1  0
 17 18  2  0
 18 19  1  0
 19 20  2  0
 20 21  1  0
 21 22  2  0
 16 23  1  0
 23 24  1  0
 12  4  1  0
 24 13  1  0
 11  6  1  0
 22 17  1  0
  3 25  1  0
  7 26  1  0
  8 27  1  0
  9 28  1  0
 10 29  1  0
 14 30  1  0
 14 31  1  0
 15 32  1  0
 15 33  1  0
 18 34  1  0
 19 35  1  0
 21 36  1  0
 22 37  1  0
 23 38  1  0
 23 39  1  0
 24 40  1  0
 24 41  1  0
M  END
>  <Energy>  (487) 
1316.0766114827688

>  <compound_id>  (487) 
6749

>  <target_id>  (487) 
1

>  <reference_id>  (487) 
68

>  <inspiration_ids>  (487) 
[68, 56]

>  <energy_score>  (487) 
1197.7559141433076

>  <distance_score>  (487) 
12.498115228445942

>  <path>  (487) 
/opt/xchem-fragalysis-2/maxwin/BulkDock/SCRATCH/511014/C6749-P68/C6749-P68.minimised.mol

>  <scratch_subdir>  (487) 
/opt/xchem-fragalysis-2/maxwin/BulkDock/SCRATCH/511014/C6749-P68

>  <fragmenstein_runtime>  (487) 
10.765866041183472

>  <fragmenstein_outcome>  (487) 
too moved

>  <fragmenstein_mode>  (487) 
expansion

>  <fragmenstein_error>  (487) 


$$$$
C6749-P56
     RDKit          3D

 41 44  0  0  0  0  0  0  0  0999 V2000
   -4.7580  -19.7935   31.3997 O   0  0  0  0  0  0  0  0  0  0  0  0
   -4.5290  -20.2814   32.3563 C   0  0  0  0  0  0  0  0  0  0  0  0
   -4.7826  -22.0696   32.6177 N   0  0  0  0  0  0  0  0  0  0  0  0
   -5.3182  -23.5741   31.4575 C   0  0  0  0  0  0  0  0  0  0  0  0
   -6.2455  -24.6479   31.9282 N   0  0  0  0  0  0  0  0  0  0  0  0
   -7.1365  -25.6940   30.9348 C   0  0  0  0  0  0  0  0  0  0  0  0
   -8.1453  -26.6082   31.3209 C   0  0  0  0  0  0  0  0  0  0  0  0
   -8.6415  -27.5496   30.3845 C   0  0  0  0  0  0  0  0  0  0  0  0
   -8.1527  -27.6292   29.0710 C   0  0  0  0  0  0  0  0  0  0  0  0
   -7.1395  -26.7763   28.6224 C   0  0  0  0  0  0  0  0  0  0  0  0
   -6.6520  -25.8483   29.5647 C   0  0  0  0  0  0  0  0  0  0  0  0
   -5.1278  -24.4046   29.2418 S   0  0  0  0  0  0  0  0  0  0  0  0
   -3.6199  -19.6139   34.0994 N   0  0  0  0  0  0  0  0  0  0  0  0
   -2.5548  -17.7594   34.7659 C   0  0  0  0  0  0  0  0  0  0  0  0
   -3.2737  -15.8952   34.3996 C   0  0  0  0  0  0  0  0  0  0  0  0
   -4.1880  -14.7306   35.5116 N   0  0  0  0  0  0  0  0  0  0  0  0
   -3.9663  -12.7475   35.2222 C   0  0  0  0  0  0  0  0  0  0  0  0
   -2.5706  -11.5685   35.0744 C   0  0  0  0  0  0  0  0  0  0  0  0
   -2.0145  -10.0967   34.5556 C   0  0  0  0  0  0  0  0  0  0  0  0
   -2.7050   -9.0176   34.3161 N   0  0  0  0  0  0  0  0  0  0  0  0
   -3.8773   -9.3476   34.7558 C   0  0  0  0  0  0  0  0  0  0  0  0
   -4.3111  -10.8319   35.1113 C   0  0  0  0  0  0  0  0  0  0  0  0
   -5.0600  -16.5768   36.0796 C   0  0  0  0  0  0  0  0  0  0  0  0
   -5.2970  -18.7752   35.5375 C   0  0  0  0  0  0  0  0  0  0  0  0
   -4.4598  -22.2994   33.4306 H   0  0  0  0  0  0  0  0  0  0  0  0
   -8.5139  -26.5958   32.3414 H   0  0  0  0  0  0  0  0  0  0  0  0
   -9.4223  -28.2394   30.7016 H   0  0  0  0  0  0  0  0  0  0  0  0
   -8.5655  -28.3689   28.3866 H   0  0  0  0  0  0  0  0  0  0  0  0
   -6.7447  -26.8223   27.6142 H   0  0  0  0  0  0  0  0  0  0  0  0
   -2.4972  -17.5396   35.8625 H   0  0  0  0  0  0  0  0  0  0  0  0
   -1.5234  -18.0859   34.8542 H   0  0  0  0  0  0  0  0  0  0  0  0
   -2.6991  -15.3055   33.6976 H   0  0  0  0  0  0  0  0  0  0  0  0
   -4.1180  -16.0996   33.7253 H   0  0  0  0  0  0  0  0  0  0  0  0
   -1.5985  -11.7158   35.4051 H   0  0  0  0  0  0  0  0  0  0  0  0
   -0.9413   -9.9825   34.4886 H   0  0  0  0  0  0  0  0  0  0  0  0
   -4.5771   -8.5425   34.9100 H   0  0  0  0  0  0  0  0  0  0  0  0
   -5.2679  -10.2712   35.5856 H   0  0  0  0  0  0  0  0  0  0  0  0
   -4.5455  -16.6642   37.0466 H   0  0  0  0  0  0  0  0  0  0  0  0
   -6.0967  -16.2494   36.2326 H   0  0  0  0  0  0  0  0  0  0  0  0
   -5.4752  -19.3586   36.4931 H   0  0  0  0  0  0  0  0  0  0  0  0
   -6.2822  -18.8496   34.9756 H   0  0  0  0  0  0  0  0  0  0  0  0
  1  2  2  0
  2  3  1  0
  3  4  1  0
  4  5  2  0
  5  6  1  0
  6  7  2  0
  7  8  1  0
  8  9  2  0
  9 10  1  0
 10 11  2  0
 11 12  1  0
  2 13  1  0
 13 14  1  0
 14 15  1  0
 15 16  1  0
 16 17  1  0
 17 18  2  0
 18 19  1  0
 19 20  2  0
 20 21  1  0
 21 22  2  0
 16 23  1  0
 23 24  1  0
 12  4  1  0
 24 13  1  0
 11  6  1  0
 22 17  1  0
  3 25  1  0
  7 26  1  0
  8 27  1  0
  9 28  1  0
 10 29  1  0
 14 30  1  0
 14 31  1  0
 15 32  1  0
 15 33  1  0
 18 34  1  0
 19 35  1  0
 21 36  1  0
 22 37  1  0
 23 38  1  0
 23 39  1  0
 24 40  1  0
 24 41  1  0
M  END
>  <Energy>  (488) 
2267.5721678653003

>  <compound_id>  (488) 
6749

>  <target_id>  (488) 
1

>  <reference_id>  (488) 
56

>  <inspiration_ids>  (488) 
[68, 56]

>  <energy_score>  (488) 
2149.251470525862

>  <distance_score>  (488) 
12.093825975483092

>  <path>  (488) 
/opt/xchem-fragalysis-2/maxwin/BulkDock/SCRATCH/511014/C6749-P56/C6749-P56.minimised.mol

>  <scratch_subdir>  (488) 
/opt/xchem-fragalysis-2/maxwin/BulkDock/SCRATCH/511014/C6749-P56

>  <fragmenstein_runtime>  (488) 
12.561500787734985

>  <fragmenstein_outcome>  (488) 
too moved

>  <fragmenstein_mode>  (488) 
expansion

>  <fragmenstein_error>  (488) 


$$$$
C6783-P68
     RDKit          3D

 44 47  0  0  0  0  0  0  0  0999 V2000
   -2.6155  -18.8471   26.9558 C   0  0  0  0  0  0  0  0  0  0  0  0
   -2.9368  -17.8030   27.6736 N   0  0  0  0  0  0  0  0  0  0  0  0
   -3.1111  -19.6935   26.7367 C   0  0  0  0  0  0  0  0  0  0  0  0
   -4.7455  -21.3531   26.6440 C   0  0  0  0  0  0  0  0  0  0  0  0
   -5.1766  -22.4746   28.0620 N   0  0  0  0  0  0  0  0  0  0  0  0
   -4.8899  -24.4270   28.6733 C   0  0  0  0  0  0  0  0  0  0  0  0
   -5.6838  -26.0202   29.4130 C   0  0  0  0  0  0  0  0  0  0  0  0
   -6.1842  -27.6607   28.8124 C   0  0  0  0  0  0  0  0  0  0  0  0
   -5.7328  -27.8597   27.2691 C   0  0  0  0  0  0  0  0  0  0  0  0
   -4.8106  -26.5194   26.5558 C   0  0  0  0  0  0  0  0  0  0  0  0
   -4.5350  -25.0903   27.0930 C   0  0  0  0  0  0  0  0  0  0  0  0
   -4.2854  -23.5252   27.4865 S   0  0  0  0  0  0  0  0  0  0  0  0
   -2.2155  -16.1819   27.2929 C   0  0  0  0  0  0  0  0  0  0  0  0
   -1.5519  -15.8078   26.4250 O   0  0  0  0  0  0  0  0  0  0  0  0
   -2.6824  -14.8239   28.5634 C   0  0  0  0  0  0  0  0  0  0  0  0
   -2.7074  -12.9010   28.6543 C   0  0  0  0  0  0  0  0  0  0  0  0
   -1.9392  -11.4225   29.5955 C   0  0  0  0  0  0  0  0  0  0  0  0
   -1.2554  -10.2381   29.2150 N   0  0  0  0  0  0  0  0  0  0  0  0
   -0.8471   -9.5714   30.4139 C   0  0  0  0  0  0  0  0  0  0  0  0
   -0.5203   -8.1952   30.8153 C   0  0  0  0  0  0  0  0  0  0  0  0
   -0.7930   -7.1006   30.0460 C   0  0  0  0  0  0  0  0  0  0  0  0
   -0.3723   -5.8375   30.4598 C   0  0  0  0  0  0  0  0  0  0  0  0
    0.1540   -5.5745   31.6651 N   0  0  0  0  0  0  0  0  0  0  0  0
    0.2506   -6.6162   32.4953 C   0  0  0  0  0  0  0  0  0  0  0  0
   -0.0821   -7.9055   32.1182 C   0  0  0  0  0  0  0  0  0  0  0  0
   -1.2604  -10.3573   31.3714 N   0  0  0  0  0  0  0  0  0  0  0  0
   -1.1524  -11.6177   30.7140 O   0  0  0  0  0  0  0  0  0  0  0  0
   -1.7838  -18.8248   27.7896 H   0  0  0  0  0  0  0  0  0  0  0  0
   -1.5037  -18.7307   26.5327 H   0  0  0  0  0  0  0  0  0  0  0  0
   -2.4345  -18.0751   26.0165 H   0  0  0  0  0  0  0  0  0  0  0  0
   -3.1758  -19.4484   25.3800 H   0  0  0  0  0  0  0  0  0  0  0  0
   -2.1421  -20.3326   27.4666 H   0  0  0  0  0  0  0  0  0  0  0  0
   -6.2302  -25.9830   30.4208 H   0  0  0  0  0  0  0  0  0  0  0  0
   -6.6824  -28.3812   29.4450 H   0  0  0  0  0  0  0  0  0  0  0  0
   -5.9286  -28.7511   26.7054 H   0  0  0  0  0  0  0  0  0  0  0  0
   -4.8574  -26.4311   25.4798 H   0  0  0  0  0  0  0  0  0  0  0  0
   -2.3412  -15.2174   29.5176 H   0  0  0  0  0  0  0  0  0  0  0  0
   -3.7725  -14.9931   28.5549 H   0  0  0  0  0  0  0  0  0  0  0  0
   -2.6794  -12.5820   27.6020 H   0  0  0  0  0  0  0  0  0  0  0  0
   -3.7390  -12.7440   29.0051 H   0  0  0  0  0  0  0  0  0  0  0  0
   -1.3632   -7.2168   29.1364 H   0  0  0  0  0  0  0  0  0  0  0  0
   -0.4937   -4.9681   29.8156 H   0  0  0  0  0  0  0  0  0  0  0  0
    0.5989   -6.3910   33.4988 H   0  0  0  0  0  0  0  0  0  0  0  0
   -0.0405   -8.6684   32.8780 H   0  0  0  0  0  0  0  0  0  0  0  0
  1  2  1  0
  2  3  1  0
  3  4  1  0
  4  5  2  0
  5  6  1  0
  6  7  2  0
  7  8  1  0
  8  9  2  0
  9 10  1  0
 10 11  2  0
 11 12  1  0
  2 13  1  0
 13 14  2  0
 13 15  1  0
 15 16  1  0
 16 17  1  0
 17 18  2  0
 18 19  1  0
 19 20  1  0
 20 21  2  0
 21 22  1  0
 22 23  2  0
 23 24  1  0
 24 25  2  0
 19 26  2  0
 26 27  1  0
 12  4  1  0
 27 17  1  0
 11  6  1  0
 25 20  1  0
  1 28  1  0
  1 29  1  0
  1 30  1  0
  3 31  1  0
  3 32  1  0
  7 33  1  0
  8 34  1  0
  9 35  1  0
 10 36  1  0
 15 37  1  0
 15 38  1  0
 16 39  1  0
 16 40  1  0
 21 41  1  0
 22 42  1  0
 24 43  1  0
 25 44  1  0
M  END
>  <Energy>  (489) 
2164.6413234554875

>  <compound_id>  (489) 
6783

>  <target_id>  (489) 
1

>  <reference_id>  (489) 
68

>  <inspiration_ids>  (489) 
[68, 56]

>  <energy_score>  (489) 
2059.437569549308

>  <distance_score>  (489) 
11.238850320901264

>  <path>  (489) 
/opt/xchem-fragalysis-2/maxwin/BulkDock/SCRATCH/511014/C6783-P68/C6783-P68.minimised.mol

>  <scratch_subdir>  (489) 
/opt/xchem-fragalysis-2/maxwin/BulkDock/SCRATCH/511014/C6783-P68

>  <fragmenstein_runtime>  (489) 
16.366400241851807

>  <fragmenstein_outcome>  (489) 
too moved

>  <fragmenstein_mode>  (489) 
expansion

>  <fragmenstein_error>  (489) 


$$$$
C6783-P56
     RDKit          3D

 44 47  0  0  0  0  0  0  0  0999 V2000
   -5.3836  -20.2567   31.7016 C   0  0  0  0  0  0  0  0  0  0  0  0
   -5.6397  -19.1758   32.3477 N   0  0  0  0  0  0  0  0  0  0  0  0
   -5.1941  -20.6918   30.8414 C   0  0  0  0  0  0  0  0  0  0  0  0
   -5.4421  -21.5338   28.6259 C   0  0  0  0  0  0  0  0  0  0  0  0
   -6.3889  -22.8594   28.0487 N   0  0  0  0  0  0  0  0  0  0  0  0
   -8.2466  -23.2718   28.1131 C   0  0  0  0  0  0  0  0  0  0  0  0
   -9.1364  -24.5382   28.5101 C   0  0  0  0  0  0  0  0  0  0  0  0
  -10.5349  -24.5577   28.5552 C   0  0  0  0  0  0  0  0  0  0  0  0
  -11.1948  -23.3553   28.4041 C   0  0  0  0  0  0  0  0  0  0  0  0
  -10.4626  -22.1665   28.2572 C   0  0  0  0  0  0  0  0  0  0  0  0
   -9.0240  -22.2842   28.1576 C   0  0  0  0  0  0  0  0  0  0  0  0
   -7.4444  -21.5659   27.6107 S   0  0  0  0  0  0  0  0  0  0  0  0
   -4.4810  -18.0205   33.3095 C   0  0  0  0  0  0  0  0  0  0  0  0
   -3.2665  -18.1215   33.2893 O   0  0  0  0  0  0  0  0  0  0  0  0
   -4.9967  -16.3414   34.3485 C   0  0  0  0  0  0  0  0  0  0  0  0
   -4.0192  -14.6229   34.9745 C   0  0  0  0  0  0  0  0  0  0  0  0
   -3.8226  -12.5804   35.1344 C   0  0  0  0  0  0  0  0  0  0  0  0
   -2.4081  -11.7175   34.6339 N   0  0  0  0  0  0  0  0  0  0  0  0
   -2.4516  -10.2202   34.8199 C   0  0  0  0  0  0  0  0  0  0  0  0
   -1.8285   -9.1398   34.0772 C   0  0  0  0  0  0  0  0  0  0  0  0
   -1.4221   -7.9914   34.7676 C   0  0  0  0  0  0  0  0  0  0  0  0
   -0.9382   -6.9129   34.0500 C   0  0  0  0  0  0  0  0  0  0  0  0
   -0.8226   -6.9076   32.7095 N   0  0  0  0  0  0  0  0  0  0  0  0
   -1.1865   -8.0290   32.0644 C   0  0  0  0  0  0  0  0  0  0  0  0
   -1.7217   -9.1453   32.6910 C   0  0  0  0  0  0  0  0  0  0  0  0
   -3.3678  -10.0161   35.7507 N   0  0  0  0  0  0  0  0  0  0  0  0
   -3.0502  -11.5385   36.3018 O   0  0  0  0  0  0  0  0  0  0  0  0
   -4.5049  -20.0685   32.4836 H   0  0  0  0  0  0  0  0  0  0  0  0
   -5.1407  -21.0520   32.5761 H   0  0  0  0  0  0  0  0  0  0  0  0
   -6.3441  -20.8029   32.2051 H   0  0  0  0  0  0  0  0  0  0  0  0
   -3.8999  -20.0398   30.9981 H   0  0  0  0  0  0  0  0  0  0  0  0
   -4.2420  -21.7469   30.8657 H   0  0  0  0  0  0  0  0  0  0  0  0
   -8.6328  -25.4718   28.7616 H   0  0  0  0  0  0  0  0  0  0  0  0
  -11.0752  -25.4783   28.7517 H   0  0  0  0  0  0  0  0  0  0  0  0
  -12.2816  -23.3192   28.4341 H   0  0  0  0  0  0  0  0  0  0  0  0
  -10.9532  -21.2095   28.1097 H   0  0  0  0  0  0  0  0  0  0  0  0
   -5.9277  -16.0073   33.8870 H   0  0  0  0  0  0  0  0  0  0  0  0
   -5.2497  -16.7747   35.3270 H   0  0  0  0  0  0  0  0  0  0  0  0
   -3.3136  -14.7623   34.1626 H   0  0  0  0  0  0  0  0  0  0  0  0
   -3.6484  -14.9427   35.9575 H   0  0  0  0  0  0  0  0  0  0  0  0
   -1.4926   -7.9369   35.8494 H   0  0  0  0  0  0  0  0  0  0  0  0
   -0.6296   -5.9963   34.5460 H   0  0  0  0  0  0  0  0  0  0  0  0
   -1.0061   -8.0052   30.9943 H   0  0  0  0  0  0  0  0  0  0  0  0
   -2.0279  -10.0020   32.1055 H   0  0  0  0  0  0  0  0  0  0  0  0
  1  2  1  0
  2  3  1  0
  3  4  1  0
  4  5  2  0
  5  6  1  0
  6  7  2  0
  7  8  1  0
  8  9  2  0
  9 10  1  0
 10 11  2  0
 11 12  1  0
  2 13  1  0
 13 14  2  0
 13 15  1  0
 15 16  1  0
 16 17  1  0
 17 18  2  0
 18 19  1  0
 19 20  1  0
 20 21  2  0
 21 22  1  0
 22 23  2  0
 23 24  1  0
 24 25  2  0
 19 26  2  0
 26 27  1  0
 12  4  1  0
 27 17  1  0
 11  6  1  0
 25 20  1  0
  1 28  1  0
  1 29  1  0
  1 30  1  0
  3 31  1  0
  3 32  1  0
  7 33  1  0
  8 34  1  0
  9 35  1  0
 10 36  1  0
 15 37  1  0
 15 38  1  0
 16 39  1  0
 16 40  1  0
 21 41  1  0
 22 42  1  0
 24 43  1  0
 25 44  1  0
M  END
>  <Energy>  (490) 
2268.6708033093382

>  <compound_id>  (490) 
6783

>  <target_id>  (490) 
1

>  <reference_id>  (490) 
56

>  <inspiration_ids>  (490) 
[68, 56]

>  <energy_score>  (490) 
2163.4670494031416

>  <distance_score>  (490) 
11.58628464441495

>  <path>  (490) 
/opt/xchem-fragalysis-2/maxwin/BulkDock/SCRATCH/511014/C6783-P56/C6783-P56.minimised.mol

>  <scratch_subdir>  (490) 
/opt/xchem-fragalysis-2/maxwin/BulkDock/SCRATCH/511014/C6783-P56

>  <fragmenstein_runtime>  (490) 
10.653311729431152

>  <fragmenstein_outcome>  (490) 
too moved

>  <fragmenstein_mode>  (490) 
expansion

>  <fragmenstein_error>  (490) 


$$$$
C6784-P68
     RDKit          3D

 43 46  0  0  0  0  0  0  0  0999 V2000
   -1.1825  -25.5564   35.3691 C   0  0  0  0  0  0  0  0  0  0  0  0
   -0.5661  -24.3753   35.2444 N   0  0  0  0  0  0  0  0  0  0  0  0
   -1.0374  -26.2853   34.9973 C   0  0  0  0  0  0  0  0  0  0  0  0
   -1.8996  -27.1724   33.6877 C   0  0  0  0  0  0  0  0  0  0  0  0
   -3.1342  -27.6573   33.7889 N   0  0  0  0  0  0  0  0  0  0  0  0
   -3.4120  -28.6254   32.7920 C   0  0  0  0  0  0  0  0  0  0  0  0
   -4.6142  -29.3584   32.6215 C   0  0  0  0  0  0  0  0  0  0  0  0
   -4.7745  -30.2641   31.5578 C   0  0  0  0  0  0  0  0  0  0  0  0
   -3.7394  -30.4699   30.6569 C   0  0  0  0  0  0  0  0  0  0  0  0
   -2.5178  -29.8024   30.8272 C   0  0  0  0  0  0  0  0  0  0  0  0
   -2.3686  -28.8954   31.9081 C   0  0  0  0  0  0  0  0  0  0  0  0
   -0.9743  -27.9925   32.4234 S   0  0  0  0  0  0  0  0  0  0  0  0
   -1.4006  -22.9185   35.4738 C   0  0  0  0  0  0  0  0  0  0  0  0
   -2.5151  -22.6763   35.6440 O   0  0  0  0  0  0  0  0  0  0  0  0
   -0.2607  -21.7364   35.5232 C   0  0  0  0  0  0  0  0  0  0  0  0
   -1.0269  -19.9861   35.2586 S   0  0  0  0  0  0  0  0  0  0  0  0
    0.0412  -18.6718   35.7182 C   0  0  0  0  0  0  0  0  0  0  0  0
   -0.1965  -17.7477   36.6299 N   0  0  0  0  0  0  0  0  0  0  0  0
    0.7596  -16.7701   36.3992 C   0  0  0  0  0  0  0  0  0  0  0  0
    0.8809  -15.5597   37.2075 C   0  0  0  0  0  0  0  0  0  0  0  0
   -0.2517  -14.9301   37.7141 C   0  0  0  0  0  0  0  0  0  0  0  0
   -0.1041  -13.7218   38.3794 C   0  0  0  0  0  0  0  0  0  0  0  0
    1.0906  -13.1423   38.6280 N   0  0  0  0  0  0  0  0  0  0  0  0
    2.1803  -13.8026   38.1855 C   0  0  0  0  0  0  0  0  0  0  0  0
    2.1291  -14.9879   37.4671 C   0  0  0  0  0  0  0  0  0  0  0  0
    1.5560  -17.0433   35.3504 N   0  0  0  0  0  0  0  0  0  0  0  0
    1.0485  -18.2183   34.9177 N   0  0  0  0  0  0  0  0  0  0  0  0
   -2.1849  -24.9820   34.8550 H   0  0  0  0  0  0  0  0  0  0  0  0
   -0.7297  -25.4488   36.5344 H   0  0  0  0  0  0  0  0  0  0  0  0
   -2.1444  -25.5244   36.2045 H   0  0  0  0  0  0  0  0  0  0  0  0
   -0.7833  -27.1969   35.8389 H   0  0  0  0  0  0  0  0  0  0  0  0
    0.0253  -26.5289   34.4317 H   0  0  0  0  0  0  0  0  0  0  0  0
   -5.4225  -29.1999   33.3306 H   0  0  0  0  0  0  0  0  0  0  0  0
   -5.7152  -30.7978   31.4503 H   0  0  0  0  0  0  0  0  0  0  0  0
   -3.8655  -31.1650   29.8306 H   0  0  0  0  0  0  0  0  0  0  0  0
   -1.6920  -29.9834   30.1456 H   0  0  0  0  0  0  0  0  0  0  0  0
    0.4763  -21.9101   34.7359 H   0  0  0  0  0  0  0  0  0  0  0  0
    0.2066  -21.7615   36.5109 H   0  0  0  0  0  0  0  0  0  0  0  0
   -1.2414  -15.3448   37.5514 H   0  0  0  0  0  0  0  0  0  0  0  0
   -0.9734  -13.1761   38.7365 H   0  0  0  0  0  0  0  0  0  0  0  0
    3.1303  -13.3274   38.4099 H   0  0  0  0  0  0  0  0  0  0  0  0
    3.0419  -15.4485   37.1054 H   0  0  0  0  0  0  0  0  0  0  0  0
    1.4041  -18.6300   34.0651 H   0  0  0  0  0  0  0  0  0  0  0  0
  1  2  1  0
  2  3  1  0
  3  4  1  0
  4  5  2  0
  5  6  1  0
  6  7  2  0
  7  8  1  0
  8  9  2  0
  9 10  1  0
 10 11  2  0
 11 12  1  0
  2 13  1  0
 13 14  2  0
 13 15  1  0
 15 16  1  0
 16 17  1  0
 17 18  2  0
 18 19  1  0
 19 20  1  0
 20 21  2  0
 21 22  1  0
 22 23  2  0
 23 24  1  0
 24 25  2  0
 19 26  2  0
 26 27  1  0
 12  4  1  0
 27 17  1  0
 11  6  1  0
 25 20  1  0
  1 28  1  0
  1 29  1  0
  1 30  1  0
  3 31  1  0
  3 32  1  0
  7 33  1  0
  8 34  1  0
  9 35  1  0
 10 36  1  0
 15 37  1  0
 15 38  1  0
 21 39  1  0
 22 40  1  0
 24 41  1  0
 25 42  1  0
 27 43  1  0
M  END
>  <Energy>  (491) 
825.709102820059

>  <compound_id>  (491) 
6784

>  <target_id>  (491) 
1

>  <reference_id>  (491) 
68

>  <inspiration_ids>  (491) 
[68, 56]

>  <energy_score>  (491) 
710.6633588543646

>  <distance_score>  (491) 
13.602432748672785

>  <path>  (491) 
/opt/xchem-fragalysis-2/maxwin/BulkDock/SCRATCH/511014/C6784-P68/C6784-P68.minimised.mol

>  <scratch_subdir>  (491) 
/opt/xchem-fragalysis-2/maxwin/BulkDock/SCRATCH/511014/C6784-P68

>  <fragmenstein_runtime>  (491) 
26.826098680496216

>  <fragmenstein_outcome>  (491) 
too moved

>  <fragmenstein_mode>  (491) 
expansion

>  <fragmenstein_error>  (491) 


$$$$
C6784-P56
     RDKit          3D

 43 46  0  0  0  0  0  0  0  0999 V2000
   -1.5023  -19.3563   32.0984 C   0  0  0  0  0  0  0  0  0  0  0  0
   -1.6244  -17.9903   32.0217 N   0  0  0  0  0  0  0  0  0  0  0  0
   -1.7541  -19.9659   31.5002 C   0  0  0  0  0  0  0  0  0  0  0  0
   -2.4048  -21.4085   30.1171 C   0  0  0  0  0  0  0  0  0  0  0  0
   -3.7706  -22.5164   30.3844 N   0  0  0  0  0  0  0  0  0  0  0  0
   -4.3158  -23.9628   29.2048 C   0  0  0  0  0  0  0  0  0  0  0  0
   -5.0840  -25.2891   29.1065 C   0  0  0  0  0  0  0  0  0  0  0  0
   -5.2889  -27.0377   28.2617 C   0  0  0  0  0  0  0  0  0  0  0  0
   -4.0142  -27.4008   27.7166 C   0  0  0  0  0  0  0  0  0  0  0  0
   -3.3883  -25.7144   27.4465 C   0  0  0  0  0  0  0  0  0  0  0  0
   -3.6613  -24.0092   27.9482 C   0  0  0  0  0  0  0  0  0  0  0  0
   -3.7486  -23.2897   30.1292 S   0  0  0  0  0  0  0  0  0  0  0  0
   -0.4473  -16.9275   32.8599 C   0  0  0  0  0  0  0  0  0  0  0  0
    0.5334  -17.1444   33.4221 O   0  0  0  0  0  0  0  0  0  0  0  0
   -0.9999  -15.2383   32.6197 C   0  0  0  0  0  0  0  0  0  0  0  0
    0.0229  -13.3144   33.0881 S   0  0  0  0  0  0  0  0  0  0  0  0
   -1.1856  -11.4671   33.6091 C   0  0  0  0  0  0  0  0  0  0  0  0
   -1.4874  -10.4232   32.7338 N   0  0  0  0  0  0  0  0  0  0  0  0
   -0.9552   -9.2764   33.3818 C   0  0  0  0  0  0  0  0  0  0  0  0
   -0.9374   -7.9353   32.8970 C   0  0  0  0  0  0  0  0  0  0  0  0
   -2.2313   -7.6061   32.9256 C   0  0  0  0  0  0  0  0  0  0  0  0
   -2.6858   -7.7323   31.6708 C   0  0  0  0  0  0  0  0  0  0  0  0
   -1.9888   -7.4389   30.5455 N   0  0  0  0  0  0  0  0  0  0  0  0
   -0.6906   -7.1930   30.6959 C   0  0  0  0  0  0  0  0  0  0  0  0
   -0.1014   -7.4830   31.8870 C   0  0  0  0  0  0  0  0  0  0  0  0
   -0.7411   -9.4743   34.6540 N   0  0  0  0  0  0  0  0  0  0  0  0
   -1.0581  -10.7754   34.7218 N   0  0  0  0  0  0  0  0  0  0  0  0
   -0.2866  -19.1364   32.1168 H   0  0  0  0  0  0  0  0  0  0  0  0
   -0.9998  -19.7377   33.1685 H   0  0  0  0  0  0  0  0  0  0  0  0
   -2.2966  -19.2169   33.0339 H   0  0  0  0  0  0  0  0  0  0  0  0
   -0.7959  -19.8255   30.5087 H   0  0  0  0  0  0  0  0  0  0  0  0
   -2.7568  -19.7818   30.9595 H   0  0  0  0  0  0  0  0  0  0  0  0
   -6.0012  -24.6195   29.0708 H   0  0  0  0  0  0  0  0  0  0  0  0
   -6.2034  -27.5608   27.9304 H   0  0  0  0  0  0  0  0  0  0  0  0
   -3.8080  -28.3237   27.1834 H   0  0  0  0  0  0  0  0  0  0  0  0
   -2.7347  -25.5512   26.6122 H   0  0  0  0  0  0  0  0  0  0  0  0
   -0.9335  -15.1931   31.5326 H   0  0  0  0  0  0  0  0  0  0  0  0
   -1.9829  -15.2325   33.0713 H   0  0  0  0  0  0  0  0  0  0  0  0
   -2.8422   -7.9418   33.7637 H   0  0  0  0  0  0  0  0  0  0  0  0
   -3.6711   -8.1673   31.5487 H   0  0  0  0  0  0  0  0  0  0  0  0
   -0.1320   -6.8960   29.8172 H   0  0  0  0  0  0  0  0  0  0  0  0
    0.9660   -7.5207   31.9338 H   0  0  0  0  0  0  0  0  0  0  0  0
   -1.6709  -10.9982   35.4828 H   0  0  0  0  0  0  0  0  0  0  0  0
  1  2  1  0
  2  3  1  0
  3  4  1  0
  4  5  2  0
  5  6  1  0
  6  7  2  0
  7  8  1  0
  8  9  2  0
  9 10  1  0
 10 11  2  0
 11 12  1  0
  2 13  1  0
 13 14  2  0
 13 15  1  0
 15 16  1  0
 16 17  1  0
 17 18  2  0
 18 19  1  0
 19 20  1  0
 20 21  2  0
 21 22  1  0
 22 23  2  0
 23 24  1  0
 24 25  2  0
 19 26  2  0
 26 27  1  0
 12  4  1  0
 27 17  1  0
 11  6  1  0
 25 20  1  0
  1 28  1  0
  1 29  1  0
  1 30  1  0
  3 31  1  0
  3 32  1  0
  7 33  1  0
  8 34  1  0
  9 35  1  0
 10 36  1  0
 15 37  1  0
 15 38  1  0
 21 39  1  0
 22 40  1  0
 24 41  1  0
 25 42  1  0
 27 43  1  0
M  END
>  <Energy>  (492) 
2079.2449074749725

>  <compound_id>  (492) 
6784

>  <target_id>  (492) 
1

>  <reference_id>  (492) 
56

>  <inspiration_ids>  (492) 
[68, 56]

>  <energy_score>  (492) 
1964.1991635092943

>  <distance_score>  (492) 
10.836197430503251

>  <path>  (492) 
/opt/xchem-fragalysis-2/maxwin/BulkDock/SCRATCH/511014/C6784-P56/C6784-P56.minimised.mol

>  <scratch_subdir>  (492) 
/opt/xchem-fragalysis-2/maxwin/BulkDock/SCRATCH/511014/C6784-P56

>  <fragmenstein_runtime>  (492) 
9.190139770507812

>  <fragmenstein_outcome>  (492) 
too moved

>  <fragmenstein_mode>  (492) 
expansion

>  <fragmenstein_error>  (492) 


$$$$
C7838-P56
     RDKit          3D

 51 52  0  0  0  0  0  0  0  0999 V2000
   -8.9822   -3.8837   15.6642 C   0  0  0  0  0  0  0  0  0  0  0  0
   -8.2360   -4.7981   16.4060 N   0  0  0  0  0  0  0  0  0  0  0  0
   -7.6954   -5.2154   14.8505 C   0  0  0  0  0  0  0  0  0  0  0  0
   -8.2666   -4.8483   13.0737 C   0  0  0  0  0  0  0  0  0  0  0  0
   -7.4556   -4.9858   11.3415 N   0  0  0  0  0  0  0  0  0  0  0  0
   -8.2014   -4.8091    9.6130 C   0  0  0  0  0  0  0  0  0  0  0  0
   -9.3870   -4.6596    9.4161 O   0  0  0  0  0  0  0  0  0  0  0  0
   -7.4424   -4.6960    8.2936 C   0  0  0  0  0  0  0  0  0  0  0  0
   -7.4964   -3.3179    7.7045 N   0  0  0  0  0  0  0  0  0  0  0  0
   -8.8181   -2.7106    7.5681 C   0  0  0  0  0  0  0  0  0  0  0  0
   -8.5805   -1.5122    6.6667 C   0  0  0  0  0  0  0  0  0  0  0  0
   -7.2577   -1.7979    5.9866 C   0  0  0  0  0  0  0  0  0  0  0  0
   -6.8931   -3.2211    6.3909 C   0  0  0  0  0  0  0  0  0  0  0  0
   -7.0925   -4.5872   17.3237 C   0  0  0  0  0  0  0  0  0  0  0  0
   -6.4739   -3.5818   17.5805 O   0  0  0  0  0  0  0  0  0  0  0  0
   -6.6164   -5.7380   18.2241 C   0  0  0  0  0  0  0  0  0  0  0  0
   -7.4980   -6.1378   19.2462 C   0  0  0  0  0  0  0  0  0  0  0  0
   -7.0533   -6.7440   20.4596 C   0  0  0  0  0  0  0  0  0  0  0  0
   -5.7053   -7.0235   20.6750 C   0  0  0  0  0  0  0  0  0  0  0  0
   -5.2458   -7.7722   21.7845 N   0  0  0  0  0  0  0  0  0  0  0  0
   -6.2315   -8.4433   22.6265 C   0  0  0  0  0  0  0  0  0  0  0  0
   -4.1236   -8.6345   21.3931 C   0  0  0  0  0  0  0  0  0  0  0  0
   -4.8250   -6.5708   19.7494 N   0  0  0  0  0  0  0  0  0  0  0  0
   -5.2839   -5.8965   18.6213 C   0  0  0  0  0  0  0  0  0  0  0  0
   -9.6389   -3.4355   16.4192 H   0  0  0  0  0  0  0  0  0  0  0  0
   -8.2736   -3.0994   15.3895 H   0  0  0  0  0  0  0  0  0  0  0  0
   -9.6432   -4.2867   14.9160 H   0  0  0  0  0  0  0  0  0  0  0  0
   -7.7963   -6.2941   14.9708 H   0  0  0  0  0  0  0  0  0  0  0  0
   -6.7109   -4.7403   14.9006 H   0  0  0  0  0  0  0  0  0  0  0  0
   -9.3485   -4.9693   12.9431 H   0  0  0  0  0  0  0  0  0  0  0  0
   -8.2593   -3.8030   13.3058 H   0  0  0  0  0  0  0  0  0  0  0  0
   -6.4660   -5.1819   11.2607 H   0  0  0  0  0  0  0  0  0  0  0  0
   -7.8700   -5.3522    7.5337 H   0  0  0  0  0  0  0  0  0  0  0  0
   -6.4847   -4.9666    8.5890 H   0  0  0  0  0  0  0  0  0  0  0  0
   -9.5334   -3.3906    7.0934 H   0  0  0  0  0  0  0  0  0  0  0  0
   -9.2069   -2.3544    8.5220 H   0  0  0  0  0  0  0  0  0  0  0  0
   -9.3920   -1.4005    5.9399 H   0  0  0  0  0  0  0  0  0  0  0  0
   -8.5170   -0.5827    7.2441 H   0  0  0  0  0  0  0  0  0  0  0  0
   -6.5103   -1.0854    6.3536 H   0  0  0  0  0  0  0  0  0  0  0  0
   -7.3445   -1.6816    4.9025 H   0  0  0  0  0  0  0  0  0  0  0  0
   -5.8120   -3.3707    6.4414 H   0  0  0  0  0  0  0  0  0  0  0  0
   -7.3224   -3.9414    5.6844 H   0  0  0  0  0  0  0  0  0  0  0  0
   -8.5568   -5.9007   19.1510 H   0  0  0  0  0  0  0  0  0  0  0  0
   -7.8066   -7.0001   21.1952 H   0  0  0  0  0  0  0  0  0  0  0  0
   -5.7637   -9.1812   23.2811 H   0  0  0  0  0  0  0  0  0  0  0  0
   -6.7800   -7.7296   23.2476 H   0  0  0  0  0  0  0  0  0  0  0  0
   -6.9490   -9.0124   22.0223 H   0  0  0  0  0  0  0  0  0  0  0  0
   -3.2917   -8.0842   20.9524 H   0  0  0  0  0  0  0  0  0  0  0  0
   -3.7202   -9.1645   22.2621 H   0  0  0  0  0  0  0  0  0  0  0  0
   -4.4527   -9.3952   20.6739 H   0  0  0  0  0  0  0  0  0  0  0  0
   -4.4862   -5.4238   18.0510 H   0  0  0  0  0  0  0  0  0  0  0  0
  1  2  1  0
  2  3  1  0
  3  4  1  0
  4  5  1  0
  5  6  1  0
  6  7  2  0
  6  8  1  0
  8  9  1  0
  9 10  1  0
 10 11  1  0
 11 12  1  0
 12 13  1  0
  2 14  1  0
 14 15  2  0
 14 16  1  0
 16 17  2  0
 17 18  1  0
 18 19  2  0
 19 20  1  0
 20 21  1  0
 20 22  1  0
 19 23  1  0
 23 24  2  0
 13  9  1  0
 24 16  1  0
  1 25  1  0
  1 26  1  0
  1 27  1  0
  3 28  1  0
  3 29  1  0
  4 30  1  0
  4 31  1  0
  5 32  1  0
  8 33  1  0
  8 34  1  0
 10 35  1  0
 10 36  1  0
 11 37  1  0
 11 38  1  0
 12 39  1  0
 12 40  1  0
 13 41  1  0
 13 42  1  0
 17 43  1  0
 18 44  1  0
 21 45  1  0
 21 46  1  0
 21 47  1  0
 22 48  1  0
 22 49  1  0
 22 50  1  0
 24 51  1  0
M  END
>  <Energy>  (493) 
354.09391903846415

>  <compound_id>  (493) 
7838

>  <target_id>  (493) 
1

>  <reference_id>  (493) 
56

>  <inspiration_ids>  (493) 
[56, 99]

>  <energy_score>  (493) 
277.5846010478442

>  <distance_score>  (493) 
12.928813226447195

>  <path>  (493) 
/opt/xchem-fragalysis-2/maxwin/BulkDock/SCRATCH/511014/C7838-P56/C7838-P56.minimised.mol

>  <scratch_subdir>  (493) 
/opt/xchem-fragalysis-2/maxwin/BulkDock/SCRATCH/511014/C7838-P56

>  <fragmenstein_runtime>  (493) 
18.715583324432373

>  <fragmenstein_outcome>  (493) 
too moved

>  <fragmenstein_mode>  (493) 
expansion

>  <fragmenstein_error>  (493) 


$$$$
C7838-P99
     RDKit          3D

 51 52  0  0  0  0  0  0  0  0999 V2000
   -9.3367   -5.3185   14.5108 C   0  0  0  0  0  0  0  0  0  0  0  0
   -8.0936   -5.4700   15.1452 N   0  0  0  0  0  0  0  0  0  0  0  0
   -7.5706   -4.7052   13.6838 C   0  0  0  0  0  0  0  0  0  0  0  0
   -6.7127   -5.2355   11.9011 C   0  0  0  0  0  0  0  0  0  0  0  0
   -7.0106   -5.2050    9.9174 N   0  0  0  0  0  0  0  0  0  0  0  0
   -8.1776   -4.5448    9.0129 C   0  0  0  0  0  0  0  0  0  0  0  0
   -9.1917   -3.9846    9.3350 O   0  0  0  0  0  0  0  0  0  0  0  0
   -7.9211   -4.5178    7.4476 C   0  0  0  0  0  0  0  0  0  0  0  0
   -7.5034   -3.2165    6.8969 N   0  0  0  0  0  0  0  0  0  0  0  0
   -8.1342   -2.0038    7.3858 C   0  0  0  0  0  0  0  0  0  0  0  0
   -7.3664   -0.9229    6.6414 C   0  0  0  0  0  0  0  0  0  0  0  0
   -5.9447   -1.4552    6.6209 C   0  0  0  0  0  0  0  0  0  0  0  0
   -6.1064   -2.9712    6.5973 C   0  0  0  0  0  0  0  0  0  0  0  0
   -7.5211   -4.7724   16.3699 C   0  0  0  0  0  0  0  0  0  0  0  0
   -7.9783   -3.8609   17.0197 O   0  0  0  0  0  0  0  0  0  0  0  0
   -6.2110   -5.3078   17.0568 C   0  0  0  0  0  0  0  0  0  0  0  0
   -5.6158   -4.5071   18.0689 C   0  0  0  0  0  0  0  0  0  0  0  0
   -5.1981   -5.0348   19.3371 C   0  0  0  0  0  0  0  0  0  0  0  0
   -5.2873   -6.3878   19.6276 C   0  0  0  0  0  0  0  0  0  0  0  0
   -5.1417   -6.8279   20.9829 N   0  0  0  0  0  0  0  0  0  0  0  0
   -4.2795   -8.0124   21.0771 C   0  0  0  0  0  0  0  0  0  0  0  0
   -6.5019   -7.1212   21.4622 C   0  0  0  0  0  0  0  0  0  0  0  0
   -5.7434   -7.2100   18.6652 N   0  0  0  0  0  0  0  0  0  0  0  0
   -6.2302   -6.6508   17.4788 C   0  0  0  0  0  0  0  0  0  0  0  0
   -9.5885   -5.1990   13.4573 H   0  0  0  0  0  0  0  0  0  0  0  0
   -9.6815   -4.3929   14.9872 H   0  0  0  0  0  0  0  0  0  0  0  0
   -9.8844   -6.1823   14.9053 H   0  0  0  0  0  0  0  0  0  0  0  0
   -6.7739   -4.0947   14.1839 H   0  0  0  0  0  0  0  0  0  0  0  0
   -8.2876   -3.8999   13.4612 H   0  0  0  0  0  0  0  0  0  0  0  0
   -6.1218   -6.2213   11.9608 H   0  0  0  0  0  0  0  0  0  0  0  0
   -5.6717   -4.8837   11.9817 H   0  0  0  0  0  0  0  0  0  0  0  0
   -6.3517   -5.6592    9.3327 H   0  0  0  0  0  0  0  0  0  0  0  0
   -8.8932   -4.7513    6.9952 H   0  0  0  0  0  0  0  0  0  0  0  0
   -7.2771   -5.2741    7.0500 H   0  0  0  0  0  0  0  0  0  0  0  0
   -9.2040   -1.9655    7.1608 H   0  0  0  0  0  0  0  0  0  0  0  0
   -7.9840   -1.8635    8.4574 H   0  0  0  0  0  0  0  0  0  0  0  0
   -7.7447   -0.8231    5.6166 H   0  0  0  0  0  0  0  0  0  0  0  0
   -7.4369    0.0537    7.1291 H   0  0  0  0  0  0  0  0  0  0  0  0
   -5.4250   -1.1504    7.5375 H   0  0  0  0  0  0  0  0  0  0  0  0
   -5.3769   -1.0791    5.7646 H   0  0  0  0  0  0  0  0  0  0  0  0
   -5.4105   -3.4145    7.3048 H   0  0  0  0  0  0  0  0  0  0  0  0
   -5.8702   -3.3626    5.6025 H   0  0  0  0  0  0  0  0  0  0  0  0
   -5.6496   -3.4219   17.9723 H   0  0  0  0  0  0  0  0  0  0  0  0
   -4.9128   -4.3611   20.1307 H   0  0  0  0  0  0  0  0  0  0  0  0
   -4.7544   -8.8944   20.6290 H   0  0  0  0  0  0  0  0  0  0  0  0
   -3.3228   -7.8617   20.5682 H   0  0  0  0  0  0  0  0  0  0  0  0
   -4.0773   -8.2466   22.1204 H   0  0  0  0  0  0  0  0  0  0  0  0
   -6.4612   -7.5406   22.4735 H   0  0  0  0  0  0  0  0  0  0  0  0
   -7.0236   -7.8591   20.8392 H   0  0  0  0  0  0  0  0  0  0  0  0
   -7.1061   -6.2075   21.5079 H   0  0  0  0  0  0  0  0  0  0  0  0
   -6.7930   -7.3817   16.8968 H   0  0  0  0  0  0  0  0  0  0  0  0
  1  2  1  0
  2  3  1  0
  3  4  1  0
  4  5  1  0
  5  6  1  0
  6  7  2  0
  6  8  1  0
  8  9  1  0
  9 10  1  0
 10 11  1  0
 11 12  1  0
 12 13  1  0
  2 14  1  0
 14 15  2  0
 14 16  1  0
 16 17  2  0
 17 18  1  0
 18 19  2  0
 19 20  1  0
 20 21  1  0
 20 22  1  0
 19 23  1  0
 23 24  2  0
 13  9  1  0
 24 16  1  0
  1 25  1  0
  1 26  1  0
  1 27  1  0
  3 28  1  0
  3 29  1  0
  4 30  1  0
  4 31  1  0
  5 32  1  0
  8 33  1  0
  8 34  1  0
 10 35  1  0
 10 36  1  0
 11 37  1  0
 11 38  1  0
 12 39  1  0
 12 40  1  0
 13 41  1  0
 13 42  1  0
 17 43  1  0
 18 44  1  0
 21 45  1  0
 21 46  1  0
 21 47  1  0
 22 48  1  0
 22 49  1  0
 22 50  1  0
 24 51  1  0
M  END
>  <Energy>  (494) 
393.08842091543727

>  <compound_id>  (494) 
7838

>  <target_id>  (494) 
1

>  <reference_id>  (494) 
99

>  <inspiration_ids>  (494) 
[56, 99]

>  <energy_score>  (494) 
316.57910292481665

>  <distance_score>  (494) 
13.181073412718138

>  <path>  (494) 
/opt/xchem-fragalysis-2/maxwin/BulkDock/SCRATCH/511014/C7838-P99/C7838-P99.minimised.mol

>  <scratch_subdir>  (494) 
/opt/xchem-fragalysis-2/maxwin/BulkDock/SCRATCH/511014/C7838-P99

>  <fragmenstein_runtime>  (494) 
24.22180438041687

>  <fragmenstein_outcome>  (494) 
too moved

>  <fragmenstein_mode>  (494) 
expansion

>  <fragmenstein_error>  (494) 


$$$$
C7848-P56
     RDKit          3D

 46 47  0  0  0  0  0  0  0  0999 V2000
   -2.2274   -4.3196   24.4405 C   0  0  0  0  0  0  0  0  0  0  0  0
   -3.0739   -5.6075   23.3749 C   0  0  0  0  0  0  0  0  0  0  0  0
   -1.9464   -6.7854   23.8969 C   0  0  0  0  0  0  0  0  0  0  0  0
   -1.9657   -7.9854   22.9666 C   0  0  0  0  0  0  0  0  0  0  0  0
   -3.0474   -8.2017   22.0994 N   0  0  0  0  0  0  0  0  0  0  0  0
   -4.1706   -7.1313   21.9616 C   0  0  0  0  0  0  0  0  0  0  0  0
   -4.3145   -5.6186   21.8511 C   0  0  0  0  0  0  0  0  0  0  0  0
   -5.1458   -5.0045   20.0575 C   0  0  0  0  0  0  0  0  0  0  0  0
   -4.5789   -4.1790   19.4970 O   0  0  0  0  0  0  0  0  0  0  0  0
   -6.5949   -6.0644   19.5716 N   0  0  0  0  0  0  0  0  0  0  0  0
   -7.6076   -6.2030   18.4187 C   0  0  0  0  0  0  0  0  0  0  0  0
   -7.3259   -6.0471   17.6671 C   0  0  0  0  0  0  0  0  0  0  0  0
   -7.4969   -5.9499   15.6233 C   0  0  0  0  0  0  0  0  0  0  0  0
   -7.8573   -5.3893   13.8947 N   0  0  0  0  0  0  0  0  0  0  0  0
   -9.2723   -4.7985   13.1764 C   0  0  0  0  0  0  0  0  0  0  0  0
  -10.2810   -4.5661   13.7845 O   0  0  0  0  0  0  0  0  0  0  0  0
   -9.5987   -4.5609   11.1799 C   0  0  0  0  0  0  0  0  0  0  0  0
   -9.0905   -4.0967    9.3603 N   0  0  0  0  0  0  0  0  0  0  0  0
   -9.2336   -2.6214    8.7973 C   0  0  0  0  0  0  0  0  0  0  0  0
   -7.9914   -2.2041    8.0363 C   0  0  0  0  0  0  0  0  0  0  0  0
   -7.6107   -3.5069    7.4009 C   0  0  0  0  0  0  0  0  0  0  0  0
   -8.1136   -4.6002    8.3764 C   0  0  0  0  0  0  0  0  0  0  0  0
   -1.9434   -4.7080   25.4235 H   0  0  0  0  0  0  0  0  0  0  0  0
   -2.8171   -3.4026   24.4864 H   0  0  0  0  0  0  0  0  0  0  0  0
   -1.1943   -4.1296   24.1136 H   0  0  0  0  0  0  0  0  0  0  0  0
   -1.1617   -6.6044   24.6230 H   0  0  0  0  0  0  0  0  0  0  0  0
   -1.1136   -8.6145   22.7727 H   0  0  0  0  0  0  0  0  0  0  0  0
   -4.8365   -7.4127   22.7753 H   0  0  0  0  0  0  0  0  0  0  0  0
   -8.8297   -6.4482   18.6741 H   0  0  0  0  0  0  0  0  0  0  0  0
   -8.1940   -5.9324   19.4626 H   0  0  0  0  0  0  0  0  0  0  0  0
   -7.7505   -7.5152   18.5494 H   0  0  0  0  0  0  0  0  0  0  0  0
   -6.7907   -7.2048   17.2680 H   0  0  0  0  0  0  0  0  0  0  0  0
   -6.1464   -5.8003   17.4504 H   0  0  0  0  0  0  0  0  0  0  0  0
   -7.4593   -6.9830   15.3434 H   0  0  0  0  0  0  0  0  0  0  0  0
   -6.4820   -5.6981   15.4114 H   0  0  0  0  0  0  0  0  0  0  0  0
   -7.1801   -5.5818   13.1664 H   0  0  0  0  0  0  0  0  0  0  0  0
  -10.1207   -3.6175   11.2028 H   0  0  0  0  0  0  0  0  0  0  0  0
  -10.4293   -5.2020   10.9810 H   0  0  0  0  0  0  0  0  0  0  0  0
   -9.5715   -1.8558    9.5063 H   0  0  0  0  0  0  0  0  0  0  0  0
   -9.9866   -2.6499    7.9879 H   0  0  0  0  0  0  0  0  0  0  0  0
   -8.2102   -1.4396    7.2831 H   0  0  0  0  0  0  0  0  0  0  0  0
   -7.2149   -1.7964    8.6848 H   0  0  0  0  0  0  0  0  0  0  0  0
   -6.5409   -3.5799    7.1845 H   0  0  0  0  0  0  0  0  0  0  0  0
   -8.1329   -3.6073    6.4396 H   0  0  0  0  0  0  0  0  0  0  0  0
   -7.2694   -5.0686    8.8699 H   0  0  0  0  0  0  0  0  0  0  0  0
   -8.6018   -5.2731    7.6634 H   0  0  0  0  0  0  0  0  0  0  0  0
  1  2  1  0
  2  3  2  0
  3  4  1  0
  4  5  2  0
  5  6  1  0
  6  7  2  0
  7  8  1  0
  8  9  2  0
  8 10  1  0
 10 11  1  0
 10 12  1  0
 12 13  1  0
 13 14  1  0
 14 15  1  0
 15 16  2  0
 15 17  1  0
 17 18  1  0
 18 19  1  0
 19 20  1  0
 20 21  1  0
 21 22  1  0
  7  2  1  0
 22 18  1  0
  1 23  1  0
  1 24  1  0
  1 25  1  0
  3 26  1  0
  4 27  1  0
  6 28  1  0
 11 29  1  0
 11 30  1  0
 11 31  1  0
 12 32  1  0
 12 33  1  0
 13 34  1  0
 13 35  1  0
 14 36  1  0
 17 37  1  0
 17 38  1  0
 19 39  1  0
 19 40  1  0
 20 41  1  0
 20 42  1  0
 21 43  1  0
 21 44  1  0
 22 45  1  0
 22 46  1  0
M  END
>  <Energy>  (495) 
1753.7243682393662

>  <compound_id>  (495) 
7848

>  <target_id>  (495) 
1

>  <reference_id>  (495) 
56

>  <inspiration_ids>  (495) 
[56, 99]

>  <energy_score>  (495) 
1657.3147991184276

>  <distance_score>  (495) 
8.440944967388122

>  <path>  (495) 
/opt/xchem-fragalysis-2/maxwin/BulkDock/SCRATCH/511014/C7848-P56/C7848-P56.minimised.mol

>  <scratch_subdir>  (495) 
/opt/xchem-fragalysis-2/maxwin/BulkDock/SCRATCH/511014/C7848-P56

>  <fragmenstein_runtime>  (495) 
23.62660264968872

>  <fragmenstein_outcome>  (495) 
too moved

>  <fragmenstein_mode>  (495) 
expansion

>  <fragmenstein_error>  (495) 


$$$$
C7848-P99
     RDKit          3D

 46 47  0  0  0  0  0  0  0  0999 V2000
    0.8458   -5.5651   23.0862 C   0  0  0  0  0  0  0  0  0  0  0  0
   -0.8667   -5.3753   23.7653 C   0  0  0  0  0  0  0  0  0  0  0  0
   -0.4741   -4.1408   24.5421 C   0  0  0  0  0  0  0  0  0  0  0  0
   -1.0960   -4.1205   25.6581 C   0  0  0  0  0  0  0  0  0  0  0  0
   -1.6125   -5.3207   25.7888 N   0  0  0  0  0  0  0  0  0  0  0  0
   -1.8698   -6.6157   24.7159 C   0  0  0  0  0  0  0  0  0  0  0  0
   -1.8518   -6.9484   23.3624 C   0  0  0  0  0  0  0  0  0  0  0  0
   -2.8389   -7.5971   21.5617 C   0  0  0  0  0  0  0  0  0  0  0  0
   -4.0231   -7.5246   21.7134 O   0  0  0  0  0  0  0  0  0  0  0  0
   -2.0395   -8.0353   19.7867 N   0  0  0  0  0  0  0  0  0  0  0  0
   -2.5696   -8.4101   18.7065 C   0  0  0  0  0  0  0  0  0  0  0  0
   -2.9405   -8.1850   17.8529 C   0  0  0  0  0  0  0  0  0  0  0  0
   -3.8642   -6.4193   16.9421 C   0  0  0  0  0  0  0  0  0  0  0  0
   -4.3356   -5.3412   15.0908 N   0  0  0  0  0  0  0  0  0  0  0  0
   -4.6620   -6.0177   13.2183 C   0  0  0  0  0  0  0  0  0  0  0  0
   -4.4949   -7.2471   12.9037 O   0  0  0  0  0  0  0  0  0  0  0  0
   -5.2281   -5.3418   12.0777 C   0  0  0  0  0  0  0  0  0  0  0  0
   -5.1149   -6.0828   10.3569 N   0  0  0  0  0  0  0  0  0  0  0  0
   -6.6192   -5.5215    9.3571 C   0  0  0  0  0  0  0  0  0  0  0  0
   -6.4945   -4.3988    7.8036 C   0  0  0  0  0  0  0  0  0  0  0  0
   -4.7596   -3.8439    7.7608 C   0  0  0  0  0  0  0  0  0  0  0  0
   -4.0477   -5.0771    9.1700 C   0  0  0  0  0  0  0  0  0  0  0  0
    1.5534   -5.3682   23.9001 H   0  0  0  0  0  0  0  0  0  0  0  0
    0.9819   -6.5891   22.7179 H   0  0  0  0  0  0  0  0  0  0  0  0
    1.0183   -4.8482   22.2822 H   0  0  0  0  0  0  0  0  0  0  0  0
    0.2840   -3.4339   24.2483 H   0  0  0  0  0  0  0  0  0  0  0  0
   -1.0436   -3.4124   26.4606 H   0  0  0  0  0  0  0  0  0  0  0  0
   -2.1169   -7.3127   25.5415 H   0  0  0  0  0  0  0  0  0  0  0  0
   -3.2010   -9.0767   19.4520 H   0  0  0  0  0  0  0  0  0  0  0  0
   -2.2895   -9.6705   18.6144 H   0  0  0  0  0  0  0  0  0  0  0  0
   -1.3314   -8.5456   18.5082 H   0  0  0  0  0  0  0  0  0  0  0  0
   -3.8069   -8.9444   17.5318 H   0  0  0  0  0  0  0  0  0  0  0  0
   -2.2352   -8.6971   17.0460 H   0  0  0  0  0  0  0  0  0  0  0  0
   -4.9003   -6.8127   17.2140 H   0  0  0  0  0  0  0  0  0  0  0  0
   -3.8534   -5.5544   17.6131 H   0  0  0  0  0  0  0  0  0  0  0  0
   -4.6057   -4.3884   15.1460 H   0  0  0  0  0  0  0  0  0  0  0  0
   -5.6308   -4.4664   12.0449 H   0  0  0  0  0  0  0  0  0  0  0  0
   -6.1794   -5.8302   12.2908 H   0  0  0  0  0  0  0  0  0  0  0  0
   -7.3321   -4.9777    9.9657 H   0  0  0  0  0  0  0  0  0  0  0  0
   -6.9581   -6.5426    9.2439 H   0  0  0  0  0  0  0  0  0  0  0  0
   -6.7566   -4.9251    6.8724 H   0  0  0  0  0  0  0  0  0  0  0  0
   -7.1989   -3.5512    7.8192 H   0  0  0  0  0  0  0  0  0  0  0  0
   -4.6998   -2.7476    7.9075 H   0  0  0  0  0  0  0  0  0  0  0  0
   -4.2109   -4.0197    6.8374 H   0  0  0  0  0  0  0  0  0  0  0  0
   -3.3740   -4.4937    9.6721 H   0  0  0  0  0  0  0  0  0  0  0  0
   -3.4444   -5.8013    8.6737 H   0  0  0  0  0  0  0  0  0  0  0  0
  1  2  1  0
  2  3  2  0
  3  4  1  0
  4  5  2  0
  5  6  1  0
  6  7  2  0
  7  8  1  0
  8  9  2  0
  8 10  1  0
 10 11  1  0
 10 12  1  0
 12 13  1  0
 13 14  1  0
 14 15  1  0
 15 16  2  0
 15 17  1  0
 17 18  1  0
 18 19  1  0
 19 20  1  0
 20 21  1  0
 21 22  1  0
  7  2  1  0
 22 18  1  0
  1 23  1  0
  1 24  1  0
  1 25  1  0
  3 26  1  0
  4 27  1  0
  6 28  1  0
 11 29  1  0
 11 30  1  0
 11 31  1  0
 12 32  1  0
 12 33  1  0
 13 34  1  0
 13 35  1  0
 14 36  1  0
 17 37  1  0
 17 38  1  0
 19 39  1  0
 19 40  1  0
 20 41  1  0
 20 42  1  0
 21 43  1  0
 21 44  1  0
 22 45  1  0
 22 46  1  0
M  END
>  <Energy>  (496) 
2181.9387800039422

>  <compound_id>  (496) 
7848

>  <target_id>  (496) 
1

>  <reference_id>  (496) 
99

>  <inspiration_ids>  (496) 
[56, 99]

>  <energy_score>  (496) 
2085.5292108830163

>  <distance_score>  (496) 
8.638351660393814

>  <path>  (496) 
/opt/xchem-fragalysis-2/maxwin/BulkDock/SCRATCH/511014/C7848-P99/C7848-P99.minimised.mol

>  <scratch_subdir>  (496) 
/opt/xchem-fragalysis-2/maxwin/BulkDock/SCRATCH/511014/C7848-P99

>  <fragmenstein_runtime>  (496) 
20.662072896957397

>  <fragmenstein_outcome>  (496) 
too moved

>  <fragmenstein_mode>  (496) 
expansion

>  <fragmenstein_error>  (496) 


$$$$
C7869-P56
     RDKit          3D

 39 40  0  0  0  0  0  0  0  0999 V2000
   -7.3463   -5.4518   13.6753 O   0  0  0  0  0  0  0  0  0  0  0  0
   -6.2920   -5.6254   13.0869 C   0  0  0  0  0  0  0  0  0  0  0  0
   -4.9598   -5.8174   14.2774 C   0  0  0  0  0  0  0  0  0  0  0  0
   -5.0138   -5.9789   16.2069 C   0  0  0  0  0  0  0  0  0  0  0  0
   -4.5944   -4.8365   17.6063 C   0  0  0  0  0  0  0  0  0  0  0  0
   -5.6951   -4.7611   18.3216 C   0  0  0  0  0  0  0  0  0  0  0  0
   -6.2339   -4.5154   19.8883 N   0  0  0  0  0  0  0  0  0  0  0  0
   -5.7570   -4.6642   21.0478 C   0  0  0  0  0  0  0  0  0  0  0  0
   -4.5339   -5.0136   20.8628 C   0  0  0  0  0  0  0  0  0  0  0  0
   -4.3416   -6.8593   22.3158 Br  0  0  0  0  0  0  0  0  0  0  0  0
   -4.1264   -4.7984   19.1586 C   0  0  0  0  0  0  0  0  0  0  0  0
   -6.0083   -5.5665   11.3658 N   0  0  0  0  0  0  0  0  0  0  0  0
   -7.2297   -5.1283    9.8931 N   0  0  0  0  0  0  0  0  0  0  0  0
   -6.9572   -4.4998    8.2864 C   0  0  0  0  0  0  0  0  0  0  0  0
   -5.9166   -4.1084    7.7387 O   0  0  0  0  0  0  0  0  0  0  0  0
   -8.1573   -4.2787    7.3737 C   0  0  0  0  0  0  0  0  0  0  0  0
   -8.9394   -5.1678    7.2379 O   0  0  0  0  0  0  0  0  0  0  0  0
   -8.0811   -3.0075    6.7377 N   0  0  0  0  0  0  0  0  0  0  0  0
   -8.8426   -1.9834    7.5257 C   0  0  0  0  0  0  0  0  0  0  0  0
   -8.5885   -0.6022    6.9593 C   0  0  0  0  0  0  0  0  0  0  0  0
   -8.6225   -0.9406    5.5085 C   0  0  0  0  0  0  0  0  0  0  0  0
   -8.8854   -2.4259    5.6240 C   0  0  0  0  0  0  0  0  0  0  0  0
   -5.1073   -4.7618   14.4645 H   0  0  0  0  0  0  0  0  0  0  0  0
   -5.2669   -6.8675   14.2653 H   0  0  0  0  0  0  0  0  0  0  0  0
   -4.5060   -6.8951   16.5089 H   0  0  0  0  0  0  0  0  0  0  0  0
   -6.0399   -6.3698   16.3184 H   0  0  0  0  0  0  0  0  0  0  0  0
   -6.4156   -5.5733   17.9251 H   0  0  0  0  0  0  0  0  0  0  0  0
   -6.4800   -4.8517   21.7891 H   0  0  0  0  0  0  0  0  0  0  0  0
   -3.9923   -3.6657   19.1781 H   0  0  0  0  0  0  0  0  0  0  0  0
   -5.0325   -5.8417   11.1665 H   0  0  0  0  0  0  0  0  0  0  0  0
   -8.1914   -5.2658   10.0399 H   0  0  0  0  0  0  0  0  0  0  0  0
   -9.9096   -2.2347    7.6412 H   0  0  0  0  0  0  0  0  0  0  0  0
   -8.4463   -2.0111    8.5447 H   0  0  0  0  0  0  0  0  0  0  0  0
   -7.6054   -0.2185    7.2525 H   0  0  0  0  0  0  0  0  0  0  0  0
   -9.3537    0.1174    7.2624 H   0  0  0  0  0  0  0  0  0  0  0  0
   -9.4088   -0.4223    4.9532 H   0  0  0  0  0  0  0  0  0  0  0  0
   -7.6582   -0.7341    5.0325 H   0  0  0  0  0  0  0  0  0  0  0  0
   -9.9494   -2.7153    5.6671 H   0  0  0  0  0  0  0  0  0  0  0  0
   -8.5208   -2.9229    4.7149 H   0  0  0  0  0  0  0  0  0  0  0  0
  1  2  2  0
  2  3  1  0
  3  4  1  0
  4  5  1  0
  5  6  2  0
  6  7  1  0
  7  8  2  0
  8  9  1  0
  9 10  1  0
  9 11  2  0
  2 12  1  0
 12 13  1  0
 13 14  1  0
 14 15  2  0
 14 16  1  0
 16 17  2  0
 16 18  1  0
 18 19  1  0
 19 20  1  0
 20 21  1  0
 21 22  1  0
 11  5  1  0
 22 18  1  0
  3 23  1  0
  3 24  1  0
  4 25  1  0
  4 26  1  0
  6 27  1  0
  8 28  1  0
 11 29  1  0
 12 30  1  0
 13 31  1  0
 19 32  1  0
 19 33  1  0
 20 34  1  0
 20 35  1  0
 21 36  1  0
 21 37  1  0
 22 38  1  0
 22 39  1  0
M  END
>  <Energy>  (497) 
781.402812801305

>  <compound_id>  (497) 
7869

>  <target_id>  (497) 
1

>  <reference_id>  (497) 
56

>  <inspiration_ids>  (497) 
[56, 99]

>  <energy_score>  (497) 
652.3699000647066

>  <distance_score>  (497) 
9.426929740280837

>  <path>  (497) 
/opt/xchem-fragalysis-2/maxwin/BulkDock/SCRATCH/511014/C7869-P56/C7869-P56.minimised.mol

>  <scratch_subdir>  (497) 
/opt/xchem-fragalysis-2/maxwin/BulkDock/SCRATCH/511014/C7869-P56

>  <fragmenstein_runtime>  (497) 
25.943397045135498

>  <fragmenstein_outcome>  (497) 
too moved

>  <fragmenstein_mode>  (497) 
expansion

>  <fragmenstein_error>  (497) 


$$$$
C7869-P99
     RDKit          3D

 39 40  0  0  0  0  0  0  0  0999 V2000
   -4.4852   -3.5568   16.2861 O   0  0  0  0  0  0  0  0  0  0  0  0
   -4.9044   -4.5920   16.6974 C   0  0  0  0  0  0  0  0  0  0  0  0
   -4.5206   -4.7219   18.6823 C   0  0  0  0  0  0  0  0  0  0  0  0
   -4.7838   -5.0607   20.6591 C   0  0  0  0  0  0  0  0  0  0  0  0
   -4.0550   -6.1497   22.0869 C   0  0  0  0  0  0  0  0  0  0  0  0
   -3.8767   -7.4468   22.0943 C   0  0  0  0  0  0  0  0  0  0  0  0
   -2.6805   -7.8066   22.4843 N   0  0  0  0  0  0  0  0  0  0  0  0
   -1.7415   -7.0429   23.5927 C   0  0  0  0  0  0  0  0  0  0  0  0
   -1.8236   -6.0802   24.4177 C   0  0  0  0  0  0  0  0  0  0  0  0
   -2.3286   -7.3266   26.3967 Br  0  0  0  0  0  0  0  0  0  0  0  0
   -2.8475   -5.6545   23.5039 C   0  0  0  0  0  0  0  0  0  0  0  0
   -5.8989   -5.7043   15.5605 N   0  0  0  0  0  0  0  0  0  0  0  0
   -6.5506   -5.4399   13.7670 N   0  0  0  0  0  0  0  0  0  0  0  0
   -8.2021   -4.7815   13.1165 C   0  0  0  0  0  0  0  0  0  0  0  0
   -9.0067   -4.3631   13.9015 O   0  0  0  0  0  0  0  0  0  0  0  0
   -9.0176   -4.7471   11.2255 C   0  0  0  0  0  0  0  0  0  0  0  0
  -10.1993   -4.9413   11.2894 O   0  0  0  0  0  0  0  0  0  0  0  0
   -8.2735   -4.5492    9.4474 N   0  0  0  0  0  0  0  0  0  0  0  0
   -8.2431   -2.8747    8.8318 C   0  0  0  0  0  0  0  0  0  0  0  0
   -7.7920   -2.8129    7.3632 C   0  0  0  0  0  0  0  0  0  0  0  0
   -7.9726   -4.2088    6.9393 C   0  0  0  0  0  0  0  0  0  0  0  0
   -8.9138   -4.6999    8.0306 C   0  0  0  0  0  0  0  0  0  0  0  0
   -4.1963   -3.7067   18.9027 H   0  0  0  0  0  0  0  0  0  0  0  0
   -3.6697   -5.3510   18.5454 H   0  0  0  0  0  0  0  0  0  0  0  0
   -5.8608   -5.2214   20.7588 H   0  0  0  0  0  0  0  0  0  0  0  0
   -4.6540   -4.1222   21.1669 H   0  0  0  0  0  0  0  0  0  0  0  0
   -4.5141   -8.2416   22.0767 H   0  0  0  0  0  0  0  0  0  0  0  0
   -0.7256   -7.3484   23.3565 H   0  0  0  0  0  0  0  0  0  0  0  0
   -2.9682   -4.5834   23.8686 H   0  0  0  0  0  0  0  0  0  0  0  0
   -6.2454   -6.4974   16.0975 H   0  0  0  0  0  0  0  0  0  0  0  0
   -5.9589   -5.6743   12.9753 H   0  0  0  0  0  0  0  0  0  0  0  0
   -9.2367   -2.4305    8.9787 H   0  0  0  0  0  0  0  0  0  0  0  0
   -7.4918   -2.1824    9.2064 H   0  0  0  0  0  0  0  0  0  0  0  0
   -6.7490   -2.4968    7.2476 H   0  0  0  0  0  0  0  0  0  0  0  0
   -8.4160   -2.1078    6.8037 H   0  0  0  0  0  0  0  0  0  0  0  0
   -7.0295   -4.7463    6.9159 H   0  0  0  0  0  0  0  0  0  0  0  0
   -8.4282   -4.2659    5.9472 H   0  0  0  0  0  0  0  0  0  0  0  0
   -9.7762   -4.0357    7.9367 H   0  0  0  0  0  0  0  0  0  0  0  0
   -9.1435   -5.6895    7.6516 H   0  0  0  0  0  0  0  0  0  0  0  0
  1  2  2  0
  2  3  1  0
  3  4  1  0
  4  5  1  0
  5  6  2  0
  6  7  1  0
  7  8  2  0
  8  9  1  0
  9 10  1  0
  9 11  2  0
  2 12  1  0
 12 13  1  0
 13 14  1  0
 14 15  2  0
 14 16  1  0
 16 17  2  0
 16 18  1  0
 18 19  1  0
 19 20  1  0
 20 21  1  0
 21 22  1  0
 11  5  1  0
 22 18  1  0
  3 23  1  0
  3 24  1  0
  4 25  1  0
  4 26  1  0
  6 27  1  0
  8 28  1  0
 11 29  1  0
 12 30  1  0
 13 31  1  0
 19 32  1  0
 19 33  1  0
 20 34  1  0
 20 35  1  0
 21 36  1  0
 21 37  1  0
 22 38  1  0
 22 39  1  0
M  END
>  <Energy>  (498) 
1126.4052844098194

>  <compound_id>  (498) 
7869

>  <target_id>  (498) 
1

>  <reference_id>  (498) 
99

>  <inspiration_ids>  (498) 
[56, 99]

>  <energy_score>  (498) 
997.3723716732093

>  <distance_score>  (498) 
8.13054437421521

>  <path>  (498) 
/opt/xchem-fragalysis-2/maxwin/BulkDock/SCRATCH/511014/C7869-P99/C7869-P99.minimised.mol

>  <scratch_subdir>  (498) 
/opt/xchem-fragalysis-2/maxwin/BulkDock/SCRATCH/511014/C7869-P99

>  <fragmenstein_runtime>  (498) 
32.177804470062256

>  <fragmenstein_outcome>  (498) 
too moved

>  <fragmenstein_mode>  (498) 
expansion

>  <fragmenstein_error>  (498) 


$$$$
C7870-P56
     RDKit          3D

 39 40  0  0  0  0  0  0  0  0999 V2000
    1.0076    0.2525   29.5359 O   0  0  0  0  0  0  0  0  0  0  0  0
    0.1308   -0.2493   28.8936 C   0  0  0  0  0  0  0  0  0  0  0  0
   -0.3008   -1.7056   29.1685 C   0  0  0  0  0  0  0  0  0  0  0  0
    0.4689   -2.3284   30.3485 C   0  0  0  0  0  0  0  0  0  0  0  0
    0.1243   -3.7601   30.7097 C   0  0  0  0  0  0  0  0  0  0  0  0
   -0.0443   -4.7580   29.7517 C   0  0  0  0  0  0  0  0  0  0  0  0
   -0.2913   -6.0639   30.0331 N   0  0  0  0  0  0  0  0  0  0  0  0
   -0.3023   -6.4125   31.3418 C   0  0  0  0  0  0  0  0  0  0  0  0
   -0.1418   -5.5049   32.3687 C   0  0  0  0  0  0  0  0  0  0  0  0
   -0.1839   -5.9050   33.6454 F   0  0  0  0  0  0  0  0  0  0  0  0
    0.0689   -4.1664   32.0531 C   0  0  0  0  0  0  0  0  0  0  0  0
   -0.6726    0.2833   27.8139 N   0  0  0  0  0  0  0  0  0  0  0  0
   -0.6056    1.4766   27.1544 N   0  0  0  0  0  0  0  0  0  0  0  0
   -1.5474    2.1243   26.2787 C   0  0  0  0  0  0  0  0  0  0  0  0
   -2.6594    1.8199   25.9681 O   0  0  0  0  0  0  0  0  0  0  0  0
   -0.8860    3.3961   25.6215 C   0  0  0  0  0  0  0  0  0  0  0  0
    0.1519    3.7657   26.1074 O   0  0  0  0  0  0  0  0  0  0  0  0
   -1.6291    3.9098   24.5057 N   0  0  0  0  0  0  0  0  0  0  0  0
   -1.2014    3.2266   23.2331 C   0  0  0  0  0  0  0  0  0  0  0  0
   -2.0223    3.6536   22.0285 C   0  0  0  0  0  0  0  0  0  0  0  0
   -2.1680    5.0953   22.3444 C   0  0  0  0  0  0  0  0  0  0  0  0
   -1.4098    5.1313   23.6609 C   0  0  0  0  0  0  0  0  0  0  0  0
   -1.3765   -1.7202   29.3807 H   0  0  0  0  0  0  0  0  0  0  0  0
   -0.1215   -2.2809   28.2537 H   0  0  0  0  0  0  0  0  0  0  0  0
    0.3069   -1.6951   31.2310 H   0  0  0  0  0  0  0  0  0  0  0  0
    1.5464   -2.2933   30.1405 H   0  0  0  0  0  0  0  0  0  0  0  0
    0.0156   -4.5412   28.6879 H   0  0  0  0  0  0  0  0  0  0  0  0
   -0.4346   -7.4676   31.5508 H   0  0  0  0  0  0  0  0  0  0  0  0
    0.2146   -3.4568   32.8631 H   0  0  0  0  0  0  0  0  0  0  0  0
   -1.2688   -0.4563   27.4463 H   0  0  0  0  0  0  0  0  0  0  0  0
    0.2259    2.0699   27.2495 H   0  0  0  0  0  0  0  0  0  0  0  0
   -1.3647    2.1591   23.3943 H   0  0  0  0  0  0  0  0  0  0  0  0
   -0.1125    3.3134   23.0738 H   0  0  0  0  0  0  0  0  0  0  0  0
   -3.0031    3.1707   22.0214 H   0  0  0  0  0  0  0  0  0  0  0  0
   -1.5106    3.4662   21.0826 H   0  0  0  0  0  0  0  0  0  0  0  0
   -1.7259    5.7598   21.5970 H   0  0  0  0  0  0  0  0  0  0  0  0
   -3.2200    5.3677   22.4796 H   0  0  0  0  0  0  0  0  0  0  0  0
   -0.3336    5.3479   23.5480 H   0  0  0  0  0  0  0  0  0  0  0  0
   -1.7824    5.9695   24.2645 H   0  0  0  0  0  0  0  0  0  0  0  0
  1  2  2  0
  2  3  1  0
  3  4  1  0
  4  5  1  0
  5  6  2  0
  6  7  1  0
  7  8  2  0
  8  9  1  0
  9 10  1  0
  9 11  2  0
  2 12  1  0
 12 13  1  0
 13 14  1  0
 14 15  2  0
 14 16  1  0
 16 17  2  0
 16 18  1  0
 18 19  1  0
 19 20  1  0
 20 21  1  0
 21 22  1  0
 11  5  1  0
 22 18  1  0
  3 23  1  0
  3 24  1  0
  4 25  1  0
  4 26  1  0
  6 27  1  0
  8 28  1  0
 11 29  1  0
 12 30  1  0
 13 31  1  0
 19 32  1  0
 19 33  1  0
 20 34  1  0
 20 35  1  0
 21 36  1  0
 21 37  1  0
 22 38  1  0
 22 39  1  0
M  END
>  <Energy>  (499) 
179.09040441311362

>  <compound_id>  (499) 
7870

>  <target_id>  (499) 
1

>  <reference_id>  (499) 
56

>  <inspiration_ids>  (499) 
[56, 99]

>  <energy_score>  (499) 
50.47305280804085

>  <distance_score>  (499) 
15.879490154278182

>  <path>  (499) 
/opt/xchem-fragalysis-2/maxwin/BulkDock/SCRATCH/511014/C7870-P56/C7870-P56.minimised.mol

>  <scratch_subdir>  (499) 
/opt/xchem-fragalysis-2/maxwin/BulkDock/SCRATCH/511014/C7870-P56

>  <fragmenstein_runtime>  (499) 
30.913695812225342

>  <fragmenstein_outcome>  (499) 
too moved

>  <fragmenstein_mode>  (499) 
expansion

>  <fragmenstein_error>  (499) 


$$$$
C7870-P99
     RDKit          3D

 39 40  0  0  0  0  0  0  0  0999 V2000
   -6.1654   -7.2299   16.2775 O   0  0  0  0  0  0  0  0  0  0  0  0
   -5.7882   -6.1000   16.0495 C   0  0  0  0  0  0  0  0  0  0  0  0
   -4.8502   -5.0098   17.3947 C   0  0  0  0  0  0  0  0  0  0  0  0
   -4.6870   -4.5885   19.3555 C   0  0  0  0  0  0  0  0  0  0  0  0
   -4.5045   -4.9371   21.1948 C   0  0  0  0  0  0  0  0  0  0  0  0
   -4.1697   -6.1870   21.9519 C   0  0  0  0  0  0  0  0  0  0  0  0
   -3.1220   -6.2341   23.3210 N   0  0  0  0  0  0  0  0  0  0  0  0
   -2.6243   -5.0208   23.9283 C   0  0  0  0  0  0  0  0  0  0  0  0
   -3.3583   -3.7533   23.7402 C   0  0  0  0  0  0  0  0  0  0  0  0
   -2.9876   -2.6425   24.3543 F   0  0  0  0  0  0  0  0  0  0  0  0
   -4.0337   -3.7680   22.1928 C   0  0  0  0  0  0  0  0  0  0  0  0
   -6.0247   -5.1479   14.7223 N   0  0  0  0  0  0  0  0  0  0  0  0
   -6.9638   -5.3946   13.3184 N   0  0  0  0  0  0  0  0  0  0  0  0
   -8.5222   -4.6162   12.7732 C   0  0  0  0  0  0  0  0  0  0  0  0
   -9.1502   -3.8441   13.4597 O   0  0  0  0  0  0  0  0  0  0  0  0
   -9.3596   -4.7376   10.9415 C   0  0  0  0  0  0  0  0  0  0  0  0
  -10.4801   -5.1519   11.0308 O   0  0  0  0  0  0  0  0  0  0  0  0
   -8.4974   -4.4231    9.3180 N   0  0  0  0  0  0  0  0  0  0  0  0
   -8.7611   -2.8421    8.8022 C   0  0  0  0  0  0  0  0  0  0  0  0
   -9.4618   -2.5650    7.4847 C   0  0  0  0  0  0  0  0  0  0  0  0
   -8.9652   -3.7055    6.7384 C   0  0  0  0  0  0  0  0  0  0  0  0
   -8.9337   -4.7099    7.8773 C   0  0  0  0  0  0  0  0  0  0  0  0
   -4.0143   -4.6268   16.8494 H   0  0  0  0  0  0  0  0  0  0  0  0
   -5.2086   -4.0290   17.1550 H   0  0  0  0  0  0  0  0  0  0  0  0
   -3.7273   -5.0309   19.3012 H   0  0  0  0  0  0  0  0  0  0  0  0
   -4.3364   -3.5652   19.3228 H   0  0  0  0  0  0  0  0  0  0  0  0
   -4.1015   -7.2541   21.7514 H   0  0  0  0  0  0  0  0  0  0  0  0
   -1.7078   -5.2329   24.4427 H   0  0  0  0  0  0  0  0  0  0  0  0
   -3.7235   -2.7967   21.8405 H   0  0  0  0  0  0  0  0  0  0  0  0
   -5.5057   -4.2927   14.8208 H   0  0  0  0  0  0  0  0  0  0  0  0
   -6.5778   -5.9295   12.5581 H   0  0  0  0  0  0  0  0  0  0  0  0
   -9.4094   -2.3189    9.5053 H   0  0  0  0  0  0  0  0  0  0  0  0
   -7.7828   -2.3573    8.7239 H   0  0  0  0  0  0  0  0  0  0  0  0
  -10.5525   -2.5822    7.5576 H   0  0  0  0  0  0  0  0  0  0  0  0
   -9.1799   -1.5988    7.0556 H   0  0  0  0  0  0  0  0  0  0  0  0
   -7.9731   -3.5152    6.3094 H   0  0  0  0  0  0  0  0  0  0  0  0
   -9.6382   -4.0098    5.9316 H   0  0  0  0  0  0  0  0  0  0  0  0
   -7.9084   -5.0531    7.6216 H   0  0  0  0  0  0  0  0  0  0  0  0
   -9.3099   -5.6822    7.5660 H   0  0  0  0  0  0  0  0  0  0  0  0
  1  2  2  0
  2  3  1  0
  3  4  1  0
  4  5  1  0
  5  6  2  0
  6  7  1  0
  7  8  2  0
  8  9  1  0
  9 10  1  0
  9 11  2  0
  2 12  1  0
 12 13  1  0
 13 14  1  0
 14 15  2  0
 14 16  1  0
 16 17  2  0
 16 18  1  0
 18 19  1  0
 19 20  1  0
 20 21  1  0
 21 22  1  0
 11  5  1  0
 22 18  1  0
  3 23  1  0
  3 24  1  0
  4 25  1  0
  4 26  1  0
  6 27  1  0
  8 28  1  0
 11 29  1  0
 12 30  1  0
 13 31  1  0
 19 32  1  0
 19 33  1  0
 20 34  1  0
 20 35  1  0
 21 36  1  0
 21 37  1  0
 22 38  1  0
 22 39  1  0
M  END
>  <Energy>  (500) 
799.56388174421465

>  <compound_id>  (500) 
7870

>  <target_id>  (500) 
1

>  <reference_id>  (500) 
99

>  <inspiration_ids>  (500) 
[56, 99]

>  <energy_score>  (500) 
670.9465301391144

>  <distance_score>  (500) 
8.591097007692186

>  <path>  (500) 
/opt/xchem-fragalysis-2/maxwin/BulkDock/SCRATCH/511014/C7870-P99/C7870-P99.minimised.mol

>  <scratch_subdir>  (500) 
/opt/xchem-fragalysis-2/maxwin/BulkDock/SCRATCH/511014/C7870-P99

>  <fragmenstein_runtime>  (500) 
32.05933690071106

>  <fragmenstein_outcome>  (500) 
too moved

>  <fragmenstein_mode>  (500) 
expansion

>  <fragmenstein_error>  (500) 


$$$$
C7871-P56
     RDKit          3D

 39 40  0  0  0  0  0  0  0  0999 V2000
   -7.5537   -5.1478   14.0053 O   0  0  0  0  0  0  0  0  0  0  0  0
   -6.3703   -5.1282   13.6670 C   0  0  0  0  0  0  0  0  0  0  0  0
   -5.1544   -4.7166   15.3359 C   0  0  0  0  0  0  0  0  0  0  0  0
   -4.5554   -4.0598   17.2772 C   0  0  0  0  0  0  0  0  0  0  0  0
   -3.6373   -2.7485   18.7068 C   0  0  0  0  0  0  0  0  0  0  0  0
   -3.8929   -1.1122   18.8959 C   0  0  0  0  0  0  0  0  0  0  0  0
   -3.4307    0.1909   18.1481 C   0  0  0  0  0  0  0  0  0  0  0  0
   -2.4206    0.1506   17.2220 C   0  0  0  0  0  0  0  0  0  0  0  0
   -1.7914    1.3191   17.0382 F   0  0  0  0  0  0  0  0  0  0  0  0
   -1.6756   -0.9611   17.1511 N   0  0  0  0  0  0  0  0  0  0  0  0
   -2.1152   -2.0874   17.9099 C   0  0  0  0  0  0  0  0  0  0  0  0
   -5.7768   -5.2867   11.8621 N   0  0  0  0  0  0  0  0  0  0  0  0
   -6.7760   -5.4833   10.0813 N   0  0  0  0  0  0  0  0  0  0  0  0
   -7.6818   -4.2695    8.9964 C   0  0  0  0  0  0  0  0  0  0  0  0
   -7.9470   -3.0739    9.1817 O   0  0  0  0  0  0  0  0  0  0  0  0
   -8.1219   -4.6749    7.5383 C   0  0  0  0  0  0  0  0  0  0  0  0
   -7.6256   -5.5694    6.9564 O   0  0  0  0  0  0  0  0  0  0  0  0
   -9.0951   -3.7129    7.1075 N   0  0  0  0  0  0  0  0  0  0  0  0
   -8.3897   -2.4677    6.5273 C   0  0  0  0  0  0  0  0  0  0  0  0
   -8.5611   -2.0001    5.1037 C   0  0  0  0  0  0  0  0  0  0  0  0
   -9.0902   -3.2593    4.5845 C   0  0  0  0  0  0  0  0  0  0  0  0
   -9.8616   -3.6113    5.8326 C   0  0  0  0  0  0  0  0  0  0  0  0
   -4.2219   -5.0699   14.9020 H   0  0  0  0  0  0  0  0  0  0  0  0
   -5.5452   -5.6421   15.8117 H   0  0  0  0  0  0  0  0  0  0  0  0
   -5.4603   -4.4187   17.7842 H   0  0  0  0  0  0  0  0  0  0  0  0
   -4.0856   -5.0152   17.5370 H   0  0  0  0  0  0  0  0  0  0  0  0
   -4.2878   -0.6103   19.7612 H   0  0  0  0  0  0  0  0  0  0  0  0
   -3.8211    1.1524   18.4747 H   0  0  0  0  0  0  0  0  0  0  0  0
   -1.2138   -2.6988   17.8773 H   0  0  0  0  0  0  0  0  0  0  0  0
   -4.7783   -5.3313   11.8419 H   0  0  0  0  0  0  0  0  0  0  0  0
   -6.6517   -6.3690    9.6031 H   0  0  0  0  0  0  0  0  0  0  0  0
   -8.6831   -1.6428    7.1941 H   0  0  0  0  0  0  0  0  0  0  0  0
   -7.3097   -2.5942    6.7010 H   0  0  0  0  0  0  0  0  0  0  0  0
   -7.6324   -1.6718    4.6323 H   0  0  0  0  0  0  0  0  0  0  0  0
   -9.2902   -1.1839    5.0371 H   0  0  0  0  0  0  0  0  0  0  0  0
   -8.2788   -3.9561    4.3689 H   0  0  0  0  0  0  0  0  0  0  0  0
   -9.7219   -3.1425    3.7009 H   0  0  0  0  0  0  0  0  0  0  0  0
  -10.7181   -2.9422    6.0117 H   0  0  0  0  0  0  0  0  0  0  0  0
  -10.2767   -4.6094    5.6722 H   0  0  0  0  0  0  0  0  0  0  0  0
  1  2  2  0
  2  3  1  0
  3  4  1  0
  4  5  1  0
  5  6  2  0
  6  7  1  0
  7  8  2  0
  8  9  1  0
  8 10  1  0
 10 11  2  0
  2 12  1  0
 12 13  1  0
 13 14  1  0
 14 15  2  0
 14 16  1  0
 16 17  2  0
 16 18  1  0
 18 19  1  0
 19 20  1  0
 20 21  1  0
 21 22  1  0
 11  5  1  0
 22 18  1  0
  3 23  1  0
  3 24  1  0
  4 25  1  0
  4 26  1  0
  6 27  1  0
  7 28  1  0
 11 29  1  0
 12 30  1  0
 13 31  1  0
 19 32  1  0
 19 33  1  0
 20 34  1  0
 20 35  1  0
 21 36  1  0
 21 37  1  0
 22 38  1  0
 22 39  1  0
M  END
>  <Energy>  (501) 
1009.1281273442049

>  <compound_id>  (501) 
7871

>  <target_id>  (501) 
1

>  <reference_id>  (501) 
56

>  <inspiration_ids>  (501) 
[56, 99]

>  <energy_score>  (501) 
901.9914920093823

>  <distance_score>  (501) 
13.454176464554216

>  <path>  (501) 
/opt/xchem-fragalysis-2/maxwin/BulkDock/SCRATCH/511014/C7871-P56/C7871-P56.minimised.mol

>  <scratch_subdir>  (501) 
/opt/xchem-fragalysis-2/maxwin/BulkDock/SCRATCH/511014/C7871-P56

>  <fragmenstein_runtime>  (501) 
14.844671487808228

>  <fragmenstein_outcome>  (501) 
too moved

>  <fragmenstein_mode>  (501) 
expansion

>  <fragmenstein_error>  (501) 


$$$$
C7871-P99
     RDKit          3D

 39 40  0  0  0  0  0  0  0  0999 V2000
   -4.9243   -8.1518   14.6173 O   0  0  0  0  0  0  0  0  0  0  0  0
   -4.6295   -9.0489   13.8676 C   0  0  0  0  0  0  0  0  0  0  0  0
   -4.5791  -10.4811   14.5918 C   0  0  0  0  0  0  0  0  0  0  0  0
   -3.5653  -10.3998   15.8994 C   0  0  0  0  0  0  0  0  0  0  0  0
   -3.3038  -11.5149   16.9381 C   0  0  0  0  0  0  0  0  0  0  0  0
   -4.3097  -12.2384   17.5828 C   0  0  0  0  0  0  0  0  0  0  0  0
   -4.0197  -13.0657   18.6914 C   0  0  0  0  0  0  0  0  0  0  0  0
   -2.7029  -13.2395   19.0796 C   0  0  0  0  0  0  0  0  0  0  0  0
   -2.4469  -13.8111   20.2862 F   0  0  0  0  0  0  0  0  0  0  0  0
   -1.6785  -12.6608   18.4148 N   0  0  0  0  0  0  0  0  0  0  0  0
   -2.0090  -11.7669   17.4294 C   0  0  0  0  0  0  0  0  0  0  0  0
   -4.2139   -9.0199   12.4452 N   0  0  0  0  0  0  0  0  0  0  0  0
   -3.9407   -7.9158   11.5727 N   0  0  0  0  0  0  0  0  0  0  0  0
   -4.8839   -7.1375   10.4776 C   0  0  0  0  0  0  0  0  0  0  0  0
   -6.0049   -7.4404   10.1511 O   0  0  0  0  0  0  0  0  0  0  0  0
   -4.1293   -5.3895    9.7009 C   0  0  0  0  0  0  0  0  0  0  0  0
   -3.9143   -4.6597   10.5746 O   0  0  0  0  0  0  0  0  0  0  0  0
   -3.8362   -4.5108    8.0801 N   0  0  0  0  0  0  0  0  0  0  0  0
   -5.3213   -3.6863    7.4190 C   0  0  0  0  0  0  0  0  0  0  0  0
   -5.4289   -2.1776    7.4064 C   0  0  0  0  0  0  0  0  0  0  0  0
   -4.0912   -1.8124    7.8534 C   0  0  0  0  0  0  0  0  0  0  0  0
   -3.2952   -3.1269    7.7423 C   0  0  0  0  0  0  0  0  0  0  0  0
   -5.5884  -10.7414   14.9236 H   0  0  0  0  0  0  0  0  0  0  0  0
   -4.2117  -11.2474   13.9040 H   0  0  0  0  0  0  0  0  0  0  0  0
   -2.5905  -10.1927   15.4422 H   0  0  0  0  0  0  0  0  0  0  0  0
   -3.8393   -9.5049   16.4698 H   0  0  0  0  0  0  0  0  0  0  0  0
   -5.3469  -12.1068   17.2829 H   0  0  0  0  0  0  0  0  0  0  0  0
   -4.8139  -13.5330   19.2592 H   0  0  0  0  0  0  0  0  0  0  0  0
   -1.1497  -11.2365   17.0219 H   0  0  0  0  0  0  0  0  0  0  0  0
   -4.1231   -9.9725   12.1048 H   0  0  0  0  0  0  0  0  0  0  0  0
   -3.0846   -7.3894   11.7036 H   0  0  0  0  0  0  0  0  0  0  0  0
   -5.2429   -3.8982    6.3478 H   0  0  0  0  0  0  0  0  0  0  0  0
   -6.2753   -4.1637    7.6875 H   0  0  0  0  0  0  0  0  0  0  0  0
   -5.6501   -1.8041    6.4000 H   0  0  0  0  0  0  0  0  0  0  0  0
   -6.2109   -1.7887    8.0647 H   0  0  0  0  0  0  0  0  0  0  0  0
   -3.6385   -1.0261    7.2381 H   0  0  0  0  0  0  0  0  0  0  0  0
   -4.1321   -1.4147    8.8662 H   0  0  0  0  0  0  0  0  0  0  0  0
   -2.5520   -2.7848    8.4085 H   0  0  0  0  0  0  0  0  0  0  0  0
   -3.1010   -3.2023    6.7146 H   0  0  0  0  0  0  0  0  0  0  0  0
  1  2  2  0
  2  3  1  0
  3  4  1  0
  4  5  1  0
  5  6  2  0
  6  7  1  0
  7  8  2  0
  8  9  1  0
  8 10  1  0
 10 11  2  0
  2 12  1  0
 12 13  1  0
 13 14  1  0
 14 15  2  0
 14 16  1  0
 16 17  2  0
 16 18  1  0
 18 19  1  0
 19 20  1  0
 20 21  1  0
 21 22  1  0
 11  5  1  0
 22 18  1  0
  3 23  1  0
  3 24  1  0
  4 25  1  0
  4 26  1  0
  6 27  1  0
  7 28  1  0
 11 29  1  0
 12 30  1  0
 13 31  1  0
 19 32  1  0
 19 33  1  0
 20 34  1  0
 20 35  1  0
 21 36  1  0
 21 37  1  0
 22 38  1  0
 22 39  1  0
M  END
>  <Energy>  (502) 
434.39187248999008

>  <compound_id>  (502) 
7871

>  <target_id>  (502) 
1

>  <reference_id>  (502) 
99

>  <inspiration_ids>  (502) 
[56, 99]

>  <energy_score>  (502) 
327.25523715516215

>  <distance_score>  (502) 
14.492483854415221

>  <path>  (502) 
/opt/xchem-fragalysis-2/maxwin/BulkDock/SCRATCH/511014/C7871-P99/C7871-P99.minimised.mol

>  <scratch_subdir>  (502) 
/opt/xchem-fragalysis-2/maxwin/BulkDock/SCRATCH/511014/C7871-P99

>  <fragmenstein_runtime>  (502) 
19.26559090614319

>  <fragmenstein_outcome>  (502) 
too moved

>  <fragmenstein_mode>  (502) 
expansion

>  <fragmenstein_error>  (502) 


$$$$
C7872-P56
     RDKit          3D

 52 53  0  0  0  0  0  0  0  0999 V2000
   -4.6762   -4.9454   17.0738 C   0  0  0  0  0  0  0  0  0  0  0  0
   -5.4437   -5.8435   16.1770 C   0  0  0  0  0  0  0  0  0  0  0  0
   -6.1967   -4.7399   14.6191 C   0  0  0  0  0  0  0  0  0  0  0  0
   -5.8838   -3.6254   14.3731 O   0  0  0  0  0  0  0  0  0  0  0  0
   -7.3321   -5.5410   13.4168 N   0  0  0  0  0  0  0  0  0  0  0  0
   -7.9819   -5.0493   12.3268 C   0  0  0  0  0  0  0  0  0  0  0  0
   -6.1789   -6.5444   11.9462 C   0  0  0  0  0  0  0  0  0  0  0  0
   -5.0945   -8.1437   12.2261 C   0  0  0  0  0  0  0  0  0  0  0  0
   -6.3463   -7.7019   10.4537 C   0  0  0  0  0  0  0  0  0  0  0  0
   -6.8750   -7.1661    9.2961 N   0  0  0  0  0  0  0  0  0  0  0  0
   -7.2557   -5.6177    8.9133 C   0  0  0  0  0  0  0  0  0  0  0  0
   -7.2114   -4.7192    9.6121 O   0  0  0  0  0  0  0  0  0  0  0  0
   -7.8275   -5.1645    7.3479 C   0  0  0  0  0  0  0  0  0  0  0  0
   -7.9080   -3.6895    7.2965 N   0  0  0  0  0  0  0  0  0  0  0  0
   -6.7345   -3.0414    6.7329 C   0  0  0  0  0  0  0  0  0  0  0  0
   -7.1853   -1.5931    6.7051 C   0  0  0  0  0  0  0  0  0  0  0  0
   -8.6628   -1.6841    6.3502 C   0  0  0  0  0  0  0  0  0  0  0  0
   -9.0241   -3.1582    6.5204 C   0  0  0  0  0  0  0  0  0  0  0  0
   -5.1228   -7.5194   16.3536 C   0  0  0  0  0  0  0  0  0  0  0  0
   -3.9522   -8.1990   16.0135 C   0  0  0  0  0  0  0  0  0  0  0  0
   -3.7092   -9.4989   16.4785 C   0  0  0  0  0  0  0  0  0  0  0  0
   -4.7123  -10.1626   17.1501 C   0  0  0  0  0  0  0  0  0  0  0  0
   -5.9278   -9.6251   17.3465 N   0  0  0  0  0  0  0  0  0  0  0  0
   -6.1027   -8.3334   16.9669 C   0  0  0  0  0  0  0  0  0  0  0  0
   -4.0473   -5.4096   17.8039 H   0  0  0  0  0  0  0  0  0  0  0  0
   -4.1636   -4.2824   16.3982 H   0  0  0  0  0  0  0  0  0  0  0  0
   -5.2923   -4.4524   17.7807 H   0  0  0  0  0  0  0  0  0  0  0  0
   -6.3979   -6.1628   16.6886 H   0  0  0  0  0  0  0  0  0  0  0  0
   -7.3260   -4.9214   11.5183 H   0  0  0  0  0  0  0  0  0  0  0  0
   -9.0736   -5.0175   12.1251 H   0  0  0  0  0  0  0  0  0  0  0  0
   -8.2749   -4.2155   12.9920 H   0  0  0  0  0  0  0  0  0  0  0  0
   -5.4425   -5.7950   11.6369 H   0  0  0  0  0  0  0  0  0  0  0  0
   -5.5549   -8.7658   13.0136 H   0  0  0  0  0  0  0  0  0  0  0  0
   -4.0461   -7.9574   12.5385 H   0  0  0  0  0  0  0  0  0  0  0  0
   -4.7530   -8.7651   11.4042 H   0  0  0  0  0  0  0  0  0  0  0  0
   -7.1586   -8.3799   10.5036 H   0  0  0  0  0  0  0  0  0  0  0  0
   -5.4421   -8.1550   10.0793 H   0  0  0  0  0  0  0  0  0  0  0  0
   -7.0923   -7.7797    8.4995 H   0  0  0  0  0  0  0  0  0  0  0  0
   -7.1990   -5.5108    6.5285 H   0  0  0  0  0  0  0  0  0  0  0  0
   -8.8365   -5.5543    7.2196 H   0  0  0  0  0  0  0  0  0  0  0  0
   -6.5653   -3.4253    5.7246 H   0  0  0  0  0  0  0  0  0  0  0  0
   -5.8142   -3.1690    7.3027 H   0  0  0  0  0  0  0  0  0  0  0  0
   -7.0674   -1.1368    7.6961 H   0  0  0  0  0  0  0  0  0  0  0  0
   -6.6389   -0.9785    5.9877 H   0  0  0  0  0  0  0  0  0  0  0  0
   -9.2533   -1.0455    7.0166 H   0  0  0  0  0  0  0  0  0  0  0  0
   -8.8445   -1.3594    5.3201 H   0  0  0  0  0  0  0  0  0  0  0  0
   -9.9815   -3.2629    7.0343 H   0  0  0  0  0  0  0  0  0  0  0  0
   -9.1010   -3.6409    5.5380 H   0  0  0  0  0  0  0  0  0  0  0  0
   -3.2019   -7.7657   15.3640 H   0  0  0  0  0  0  0  0  0  0  0  0
   -2.7692   -9.9946   16.2609 H   0  0  0  0  0  0  0  0  0  0  0  0
   -4.5822  -11.1792   17.5060 H   0  0  0  0  0  0  0  0  0  0  0  0
   -7.0898   -7.9530   17.2234 H   0  0  0  0  0  0  0  0  0  0  0  0
  1  2  1  0
  2  3  1  0
  3  4  2  0
  3  5  1  0
  5  6  1  0
  5  7  1  0
  7  8  1  0
  7  9  1  0
  9 10  1  0
 10 11  1  0
 11 12  2  0
 11 13  1  0
 13 14  1  0
 14 15  1  0
 15 16  1  0
 16 17  1  0
 17 18  1  0
  2 19  1  0
 19 20  2  0
 20 21  1  0
 21 22  2  0
 22 23  1  0
 23 24  2  0
 18 14  1  0
 24 19  1  0
  1 25  1  0
  1 26  1  0
  1 27  1  0
  2 28  1  0
  6 29  1  0
  6 30  1  0
  6 31  1  0
  7 32  1  0
  8 33  1  0
  8 34  1  0
  8 35  1  0
  9 36  1  0
  9 37  1  0
 10 38  1  0
 13 39  1  0
 13 40  1  0
 15 41  1  0
 15 42  1  0
 16 43  1  0
 16 44  1  0
 17 45  1  0
 17 46  1  0
 18 47  1  0
 18 48  1  0
 20 49  1  0
 21 50  1  0
 22 51  1  0
 24 52  1  0
M  END
>  <Energy>  (503) 
669.35592847277849

>  <compound_id>  (503) 
7872

>  <target_id>  (503) 
1

>  <reference_id>  (503) 
56

>  <inspiration_ids>  (503) 
[56, 99]

>  <energy_score>  (503) 
546.3332871071225

>  <distance_score>  (503) 
10.902939411711051

>  <path>  (503) 
/opt/xchem-fragalysis-2/maxwin/BulkDock/SCRATCH/511014/C7872-P56/C7872-P56.minimised.mol

>  <scratch_subdir>  (503) 
/opt/xchem-fragalysis-2/maxwin/BulkDock/SCRATCH/511014/C7872-P56

>  <fragmenstein_runtime>  (503) 
40.864826679229736

>  <fragmenstein_outcome>  (503) 
too moved

>  <fragmenstein_mode>  (503) 
expansion

>  <fragmenstein_error>  (503) 


$$$$
C7872-P99
     RDKit          3D

 52 53  0  0  0  0  0  0  0  0999 V2000
   -3.8076   -3.3267   22.2346 C   0  0  0  0  0  0  0  0  0  0  0  0
   -3.6508   -4.6364   21.4732 C   0  0  0  0  0  0  0  0  0  0  0  0
   -4.5548   -4.8193   19.6091 C   0  0  0  0  0  0  0  0  0  0  0  0
   -5.7216   -4.6802   19.7593 O   0  0  0  0  0  0  0  0  0  0  0  0
   -4.1914   -5.4027   17.7405 N   0  0  0  0  0  0  0  0  0  0  0  0
   -5.0847   -5.7755   16.6581 C   0  0  0  0  0  0  0  0  0  0  0  0
   -3.8330   -4.3685   16.0647 C   0  0  0  0  0  0  0  0  0  0  0  0
   -2.2679   -3.3026   15.8897 C   0  0  0  0  0  0  0  0  0  0  0  0
   -3.9298   -5.3576   14.1661 C   0  0  0  0  0  0  0  0  0  0  0  0
   -4.9632   -5.2777   12.4108 N   0  0  0  0  0  0  0  0  0  0  0  0
   -5.2849   -6.4660   11.2108 C   0  0  0  0  0  0  0  0  0  0  0  0
   -4.8583   -7.6152   11.1530 O   0  0  0  0  0  0  0  0  0  0  0  0
   -6.4732   -5.9110    9.6661 C   0  0  0  0  0  0  0  0  0  0  0  0
   -7.0860   -4.8047    8.3418 N   0  0  0  0  0  0  0  0  0  0  0  0
   -8.4913   -4.4148    8.1878 C   0  0  0  0  0  0  0  0  0  0  0  0
   -8.5135   -2.9900    7.6588 C   0  0  0  0  0  0  0  0  0  0  0  0
   -7.3135   -2.9155    6.7623 C   0  0  0  0  0  0  0  0  0  0  0  0
   -6.4471   -4.1025    7.1767 C   0  0  0  0  0  0  0  0  0  0  0  0
   -2.8153   -5.2920   23.2502 C   0  0  0  0  0  0  0  0  0  0  0  0
   -1.7993   -4.9278   24.1205 C   0  0  0  0  0  0  0  0  0  0  0  0
   -1.4827   -5.6511   25.2291 C   0  0  0  0  0  0  0  0  0  0  0  0
   -1.7895   -6.8758   25.0913 C   0  0  0  0  0  0  0  0  0  0  0  0
   -1.7491   -7.1041   23.8354 N   0  0  0  0  0  0  0  0  0  0  0  0
   -2.8725   -6.5545   23.3290 C   0  0  0  0  0  0  0  0  0  0  0  0
   -3.6383   -2.4493   21.6673 H   0  0  0  0  0  0  0  0  0  0  0  0
   -2.9781   -2.6462   22.6429 H   0  0  0  0  0  0  0  0  0  0  0  0
   -3.9744   -3.4445   23.2994 H   0  0  0  0  0  0  0  0  0  0  0  0
   -4.5200   -5.2909   21.6675 H   0  0  0  0  0  0  0  0  0  0  0  0
   -5.9763   -6.2257   17.1208 H   0  0  0  0  0  0  0  0  0  0  0  0
   -5.4434   -5.3060   15.7743 H   0  0  0  0  0  0  0  0  0  0  0  0
   -4.6907   -6.7685   16.3455 H   0  0  0  0  0  0  0  0  0  0  0  0
   -4.7874   -3.9269   15.9144 H   0  0  0  0  0  0  0  0  0  0  0  0
   -2.3322   -2.2725   16.2223 H   0  0  0  0  0  0  0  0  0  0  0  0
   -1.3840   -3.5429   16.4488 H   0  0  0  0  0  0  0  0  0  0  0  0
   -1.8343   -3.4391   14.8819 H   0  0  0  0  0  0  0  0  0  0  0  0
   -3.6129   -6.3971   14.3402 H   0  0  0  0  0  0  0  0  0  0  0  0
   -3.0095   -4.8976   13.7619 H   0  0  0  0  0  0  0  0  0  0  0  0
   -5.5082   -4.4911   12.2374 H   0  0  0  0  0  0  0  0  0  0  0  0
   -7.1183   -5.1596   10.1565 H   0  0  0  0  0  0  0  0  0  0  0  0
   -6.8711   -6.9120    9.4202 H   0  0  0  0  0  0  0  0  0  0  0  0
   -9.0786   -4.4459    9.0941 H   0  0  0  0  0  0  0  0  0  0  0  0
   -8.9287   -5.0640    7.4223 H   0  0  0  0  0  0  0  0  0  0  0  0
   -9.4426   -2.7650    7.1257 H   0  0  0  0  0  0  0  0  0  0  0  0
   -8.4149   -2.2647    8.4706 H   0  0  0  0  0  0  0  0  0  0  0  0
   -7.6058   -3.0030    5.7097 H   0  0  0  0  0  0  0  0  0  0  0  0
   -6.7904   -1.9614    6.8878 H   0  0  0  0  0  0  0  0  0  0  0  0
   -6.4399   -4.7710    6.3116 H   0  0  0  0  0  0  0  0  0  0  0  0
   -5.4491   -3.6858    7.3513 H   0  0  0  0  0  0  0  0  0  0  0  0
   -0.8247   -4.6002   23.7387 H   0  0  0  0  0  0  0  0  0  0  0  0
   -1.6186   -5.3266   26.2616 H   0  0  0  0  0  0  0  0  0  0  0  0
   -2.1459   -7.4819   25.9170 H   0  0  0  0  0  0  0  0  0  0  0  0
   -3.5632   -7.1557   22.6677 H   0  0  0  0  0  0  0  0  0  0  0  0
  1  2  1  0
  2  3  1  0
  3  4  2  0
  3  5  1  0
  5  6  1  0
  5  7  1  0
  7  8  1  0
  7  9  1  0
  9 10  1  0
 10 11  1  0
 11 12  2  0
 11 13  1  0
 13 14  1  0
 14 15  1  0
 15 16  1  0
 16 17  1  0
 17 18  1  0
  2 19  1  0
 19 20  2  0
 20 21  1  0
 21 22  2  0
 22 23  1  0
 23 24  2  0
 18 14  1  0
 24 19  1  0
  1 25  1  0
  1 26  1  0
  1 27  1  0
  2 28  1  0
  6 29  1  0
  6 30  1  0
  6 31  1  0
  7 32  1  0
  8 33  1  0
  8 34  1  0
  8 35  1  0
  9 36  1  0
  9 37  1  0
 10 38  1  0
 13 39  1  0
 13 40  1  0
 15 41  1  0
 15 42  1  0
 16 43  1  0
 16 44  1  0
 17 45  1  0
 17 46  1  0
 18 47  1  0
 18 48  1  0
 20 49  1  0
 21 50  1  0
 22 51  1  0
 24 52  1  0
M  END
>  <Energy>  (504) 
1344.4240041598675

>  <compound_id>  (504) 
7872

>  <target_id>  (504) 
1

>  <reference_id>  (504) 
99

>  <inspiration_ids>  (504) 
[56, 99]

>  <energy_score>  (504) 
1221.401362794204

>  <distance_score>  (504) 
7.693565681213153

>  <path>  (504) 
/opt/xchem-fragalysis-2/maxwin/BulkDock/SCRATCH/511014/C7872-P99/C7872-P99.minimised.mol

>  <scratch_subdir>  (504) 
/opt/xchem-fragalysis-2/maxwin/BulkDock/SCRATCH/511014/C7872-P99

>  <fragmenstein_runtime>  (504) 
51.05864357948303

>  <fragmenstein_outcome>  (504) 
too moved

>  <fragmenstein_mode>  (504) 
expansion

>  <fragmenstein_error>  (504) 


$$$$
C7879-P56
     RDKit          3D

 44 45  0  0  0  0  0  0  0  0999 V2000
   -1.2493   -4.4283   24.8521 C   0  0  0  0  0  0  0  0  0  0  0  0
   -1.8347   -5.4695   24.0549 O   0  0  0  0  0  0  0  0  0  0  0  0
   -3.1192   -5.2833   23.1133 C   0  0  0  0  0  0  0  0  0  0  0  0
   -4.3147   -4.4136   21.4877 C   0  0  0  0  0  0  0  0  0  0  0  0
   -4.5845   -2.7643   22.6817 C   0  0  0  0  0  0  0  0  0  0  0  0
   -6.0614   -2.1632   22.8034 N   0  0  0  0  0  0  0  0  0  0  0  0
   -3.5778   -2.4110   23.2659 O   0  0  0  0  0  0  0  0  0  0  0  0
   -5.2444   -4.2365   19.5127 N   0  0  0  0  0  0  0  0  0  0  0  0
   -4.8129   -4.6102   20.7528 C   0  0  0  0  0  0  0  0  0  0  0  0
   -4.7270   -4.8932   17.6360 C   0  0  0  0  0  0  0  0  0  0  0  0
   -3.8059   -5.6185   17.7049 O   0  0  0  0  0  0  0  0  0  0  0  0
   -5.2231   -4.5619   15.5260 C   0  0  0  0  0  0  0  0  0  0  0  0
   -6.7118   -4.6745   14.6901 C   0  0  0  0  0  0  0  0  0  0  0  0
   -7.6287   -5.0335   13.3487 C   0  0  0  0  0  0  0  0  0  0  0  0
   -6.8368   -5.5794   12.1615 C   0  0  0  0  0  0  0  0  0  0  0  0
   -5.6195   -7.2853   11.3600 Cl  0  0  0  0  0  0  0  0  0  0  0  0
   -5.7171   -4.9328   11.8968 C   0  0  0  0  0  0  0  0  0  0  0  0
   -6.9623   -4.7247   10.3775 N   0  0  0  0  0  0  0  0  0  0  0  0
   -7.9074   -3.4827    9.0853 C   0  0  0  0  0  0  0  0  0  0  0  0
   -7.4397   -3.5168    7.6440 C   0  0  0  0  0  0  0  0  0  0  0  0
   -7.3531   -4.9525    7.5719 C   0  0  0  0  0  0  0  0  0  0  0  0
   -6.8448   -5.4912    9.1715 C   0  0  0  0  0  0  0  0  0  0  0  0
   -5.1160   -4.3937   13.6936 N   0  0  0  0  0  0  0  0  0  0  0  0
   -0.9667   -4.8649   25.8137 H   0  0  0  0  0  0  0  0  0  0  0  0
   -1.9079   -3.5734   25.0154 H   0  0  0  0  0  0  0  0  0  0  0  0
   -0.3279   -4.0858   24.3747 H   0  0  0  0  0  0  0  0  0  0  0  0
   -3.6502   -6.2505   23.2941 H   0  0  0  0  0  0  0  0  0  0  0  0
   -3.2681   -4.4516   23.8743 H   0  0  0  0  0  0  0  0  0  0  0  0
   -3.6690   -3.4853   21.7033 H   0  0  0  0  0  0  0  0  0  0  0  0
   -6.7169   -2.7600   22.2618 H   0  0  0  0  0  0  0  0  0  0  0  0
   -6.6679   -2.6073   22.0883 H   0  0  0  0  0  0  0  0  0  0  0  0
   -5.9267   -4.0945   21.1833 H   0  0  0  0  0  0  0  0  0  0  0  0
   -5.7719   -5.2874   20.5675 H   0  0  0  0  0  0  0  0  0  0  0  0
   -4.6949   -5.8830   21.1076 H   0  0  0  0  0  0  0  0  0  0  0  0
   -7.4792   -5.3648   15.3885 H   0  0  0  0  0  0  0  0  0  0  0  0
   -8.7045   -4.9235   13.4091 H   0  0  0  0  0  0  0  0  0  0  0  0
   -7.7032   -2.4096    9.2039 H   0  0  0  0  0  0  0  0  0  0  0  0
   -8.9720   -3.7596    9.1024 H   0  0  0  0  0  0  0  0  0  0  0  0
   -8.1766   -3.0843    6.9601 H   0  0  0  0  0  0  0  0  0  0  0  0
   -6.4778   -3.0264    7.4535 H   0  0  0  0  0  0  0  0  0  0  0  0
   -8.3450   -5.3559    7.3267 H   0  0  0  0  0  0  0  0  0  0  0  0
   -6.7378   -5.1884    6.7010 H   0  0  0  0  0  0  0  0  0  0  0  0
   -7.8586   -5.3243    9.3060 H   0  0  0  0  0  0  0  0  0  0  0  0
   -6.7986   -6.5557    9.3780 H   0  0  0  0  0  0  0  0  0  0  0  0
  1  2  1  0
  2  3  1  0
  3  4  1  0
  4  5  1  0
  5  6  1  0
  5  7  2  0
  4  8  1  0
  8  9  1  0
  8 10  1  0
 10 11  2  0
 10 12  1  0
 12 13  2  0
 13 14  1  0
 14 15  2  0
 15 16  1  0
 15 17  1  0
 17 18  1  0
 18 19  1  0
 19 20  1  0
 20 21  1  0
 21 22  1  0
 17 23  2  0
 23 12  1  0
 22 18  1  0
  1 24  1  0
  1 25  1  0
  1 26  1  0
  3 27  1  0
  3 28  1  0
  4 29  1  0
  6 30  1  0
  6 31  1  0
  9 32  1  0
  9 33  1  0
  9 34  1  0
 13 35  1  0
 14 36  1  0
 19 37  1  0
 19 38  1  0
 20 39  1  0
 20 40  1  0
 21 41  1  0
 21 42  1  0
 22 43  1  0
 22 44  1  0
M  END
>  <Energy>  (505) 
2896.1210480991576

>  <compound_id>  (505) 
7879

>  <target_id>  (505) 
1

>  <reference_id>  (505) 
56

>  <inspiration_ids>  (505) 
[56, 99]

>  <energy_score>  (505) 
2734.7339149286995

>  <distance_score>  (505) 
9.676870027684954

>  <path>  (505) 
/opt/xchem-fragalysis-2/maxwin/BulkDock/SCRATCH/511014/C7879-P56/C7879-P56.minimised.mol

>  <scratch_subdir>  (505) 
/opt/xchem-fragalysis-2/maxwin/BulkDock/SCRATCH/511014/C7879-P56

>  <fragmenstein_runtime>  (505) 
25.479182243347168

>  <fragmenstein_outcome>  (505) 
too moved

>  <fragmenstein_mode>  (505) 
expansion

>  <fragmenstein_error>  (505) 


$$$$
C7879-P99
     RDKit          3D

 44 45  0  0  0  0  0  0  0  0999 V2000
   -4.0567   -1.6438   28.1624 C   0  0  0  0  0  0  0  0  0  0  0  0
   -4.3434   -1.6002   26.7660 O   0  0  0  0  0  0  0  0  0  0  0  0
   -4.0921   -0.3062   26.1980 C   0  0  0  0  0  0  0  0  0  0  0  0
   -3.7660   -0.4971   24.4336 C   0  0  0  0  0  0  0  0  0  0  0  0
   -2.0514   -0.8842   24.4252 C   0  0  0  0  0  0  0  0  0  0  0  0
   -1.5491   -0.7866   23.0666 N   0  0  0  0  0  0  0  0  0  0  0  0
   -1.4988   -1.1965   25.4396 O   0  0  0  0  0  0  0  0  0  0  0  0
   -4.0145    0.5281   22.7646 N   0  0  0  0  0  0  0  0  0  0  0  0
   -4.0580    0.1553   24.0301 C   0  0  0  0  0  0  0  0  0  0  0  0
   -5.2465    1.3597   22.0553 C   0  0  0  0  0  0  0  0  0  0  0  0
   -6.3021    1.6490   22.4201 O   0  0  0  0  0  0  0  0  0  0  0  0
   -4.8734    1.6996   20.5826 C   0  0  0  0  0  0  0  0  0  0  0  0
   -3.5523    1.7491   20.1904 C   0  0  0  0  0  0  0  0  0  0  0  0
   -3.2683    1.7770   18.8335 C   0  0  0  0  0  0  0  0  0  0  0  0
   -4.3023    1.7719   17.8981 C   0  0  0  0  0  0  0  0  0  0  0  0
   -3.7755    1.4694   16.2961 Cl  0  0  0  0  0  0  0  0  0  0  0  0
   -5.6456    1.8276   18.3213 C   0  0  0  0  0  0  0  0  0  0  0  0
   -6.7307    1.8079   17.4548 N   0  0  0  0  0  0  0  0  0  0  0  0
   -6.7199    2.4042   16.1197 C   0  0  0  0  0  0  0  0  0  0  0  0
   -8.1602    2.8117   15.8419 C   0  0  0  0  0  0  0  0  0  0  0  0
   -8.9491    1.8737   16.7305 C   0  0  0  0  0  0  0  0  0  0  0  0
   -8.0864    1.8351   17.9877 C   0  0  0  0  0  0  0  0  0  0  0  0
   -5.9073    1.7629   19.6668 N   0  0  0  0  0  0  0  0  0  0  0  0
   -2.9753   -1.6241   28.3233 H   0  0  0  0  0  0  0  0  0  0  0  0
   -4.4733   -2.5637   28.5768 H   0  0  0  0  0  0  0  0  0  0  0  0
   -4.5266   -0.7982   28.6749 H   0  0  0  0  0  0  0  0  0  0  0  0
   -4.9948    0.2961   26.3571 H   0  0  0  0  0  0  0  0  0  0  0  0
   -3.2207    0.1797   26.6535 H   0  0  0  0  0  0  0  0  0  0  0  0
   -4.1272   -1.6391   24.1938 H   0  0  0  0  0  0  0  0  0  0  0  0
   -2.2875   -0.3697   22.4597 H   0  0  0  0  0  0  0  0  0  0  0  0
   -2.3459   -0.5980   22.4219 H   0  0  0  0  0  0  0  0  0  0  0  0
   -4.7308    1.0883   24.5292 H   0  0  0  0  0  0  0  0  0  0  0  0
   -5.3330   -0.0622   23.8953 H   0  0  0  0  0  0  0  0  0  0  0  0
   -3.3394    1.1844   24.2590 H   0  0  0  0  0  0  0  0  0  0  0  0
   -2.7451    1.7313   20.9132 H   0  0  0  0  0  0  0  0  0  0  0  0
   -2.2304    1.7456   18.5059 H   0  0  0  0  0  0  0  0  0  0  0  0
   -6.1043    3.3065   16.0886 H   0  0  0  0  0  0  0  0  0  0  0  0
   -6.4101    1.6601   15.3819 H   0  0  0  0  0  0  0  0  0  0  0  0
   -8.4204    2.7563   14.7844 H   0  0  0  0  0  0  0  0  0  0  0  0
   -8.3223    3.8481   16.1644 H   0  0  0  0  0  0  0  0  0  0  0  0
   -9.0080    0.8689   16.3006 H   0  0  0  0  0  0  0  0  0  0  0  0
   -9.9636    2.2290   16.9297 H   0  0  0  0  0  0  0  0  0  0  0  0
   -8.2513    2.7391   18.5875 H   0  0  0  0  0  0  0  0  0  0  0  0
   -8.3282    0.9590   18.5933 H   0  0  0  0  0  0  0  0  0  0  0  0
  1  2  1  0
  2  3  1  0
  3  4  1  0
  4  5  1  0
  5  6  1  0
  5  7  2  0
  4  8  1  0
  8  9  1  0
  8 10  1  0
 10 11  2  0
 10 12  1  0
 12 13  2  0
 13 14  1  0
 14 15  2  0
 15 16  1  0
 15 17  1  0
 17 18  1  0
 18 19  1  0
 19 20  1  0
 20 21  1  0
 21 22  1  0
 17 23  2  0
 23 12  1  0
 22 18  1  0
  1 24  1  0
  1 25  1  0
  1 26  1  0
  3 27  1  0
  3 28  1  0
  4 29  1  0
  6 30  1  0
  6 31  1  0
  9 32  1  0
  9 33  1  0
  9 34  1  0
 13 35  1  0
 14 36  1  0
 19 37  1  0
 19 38  1  0
 20 39  1  0
 20 40  1  0
 21 41  1  0
 21 42  1  0
 22 43  1  0
 22 44  1  0
M  END
>  <Energy>  (506) 
1022.3188861323189

>  <compound_id>  (506) 
7879

>  <target_id>  (506) 
1

>  <reference_id>  (506) 
99

>  <inspiration_ids>  (506) 
[56, 99]

>  <energy_score>  (506) 
860.93175296182

>  <distance_score>  (506) 
12.007463549660228

>  <path>  (506) 
/opt/xchem-fragalysis-2/maxwin/BulkDock/SCRATCH/511014/C7879-P99/C7879-P99.minimised.mol

>  <scratch_subdir>  (506) 
/opt/xchem-fragalysis-2/maxwin/BulkDock/SCRATCH/511014/C7879-P99

>  <fragmenstein_runtime>  (506) 
22.75055432319641

>  <fragmenstein_outcome>  (506) 
too moved

>  <fragmenstein_mode>  (506) 
expansion

>  <fragmenstein_error>  (506) 


$$$$
C7880-P56
     RDKit          3D

 44 45  0  0  0  0  0  0  0  0999 V2000
   -7.2164   -5.9014   22.5808 O   0  0  0  0  0  0  0  0  0  0  0  0
   -6.6022   -5.8612   21.5690 C   0  0  0  0  0  0  0  0  0  0  0  0
   -7.1076   -5.7856   20.1220 N   0  0  0  0  0  0  0  0  0  0  0  0
   -8.6689   -5.8809   19.4964 C   0  0  0  0  0  0  0  0  0  0  0  0
   -8.9363   -6.8216   18.1685 C   0  0  0  0  0  0  0  0  0  0  0  0
  -10.0284   -7.7361   18.4791 O   0  0  0  0  0  0  0  0  0  0  0  0
   -9.3213   -6.2283   16.7721 C   0  0  0  0  0  0  0  0  0  0  0  0
  -10.3345   -5.1888   16.8866 N   0  0  0  0  0  0  0  0  0  0  0  0
  -11.0297   -4.8449   15.6522 C   0  0  0  0  0  0  0  0  0  0  0  0
  -11.7474   -3.4804   15.8876 C   0  0  0  0  0  0  0  0  0  0  0  0
  -12.4380   -3.2839   16.8548 O   0  0  0  0  0  0  0  0  0  0  0  0
  -11.3720   -2.6061   14.8215 N   0  0  0  0  0  0  0  0  0  0  0  0
  -10.0921   -1.9035   15.1532 C   0  0  0  0  0  0  0  0  0  0  0  0
  -10.2402   -0.7545   16.1113 C   0  0  0  0  0  0  0  0  0  0  0  0
  -11.4685   -0.1578   15.5425 C   0  0  0  0  0  0  0  0  0  0  0  0
  -11.8029   -1.2048   14.5048 C   0  0  0  0  0  0  0  0  0  0  0  0
   -4.6721   -6.1310   21.9225 C   0  0  0  0  0  0  0  0  0  0  0  0
   -4.4101   -7.2618   22.6744 C   0  0  0  0  0  0  0  0  0  0  0  0
   -3.3506   -8.7282   22.6505 C   0  0  0  0  0  0  0  0  0  0  0  0
   -2.3975   -9.0997   21.8237 C   0  0  0  0  0  0  0  0  0  0  0  0
   -2.8543   -8.2709   20.9645 C   0  0  0  0  0  0  0  0  0  0  0  0
   -3.8909   -7.0880   21.3215 N   0  0  0  0  0  0  0  0  0  0  0  0
   -6.3418   -5.6803   19.5163 H   0  0  0  0  0  0  0  0  0  0  0  0
   -8.8482   -6.6797   20.1798 H   0  0  0  0  0  0  0  0  0  0  0  0
   -9.4702   -5.1807   19.7346 H   0  0  0  0  0  0  0  0  0  0  0  0
   -8.0553   -7.4537   18.0178 H   0  0  0  0  0  0  0  0  0  0  0  0
  -10.0337   -7.9106   19.4463 H   0  0  0  0  0  0  0  0  0  0  0  0
   -8.4303   -5.8568   16.2731 H   0  0  0  0  0  0  0  0  0  0  0  0
   -9.7135   -7.0464   16.1536 H   0  0  0  0  0  0  0  0  0  0  0  0
  -11.0417   -5.4836   17.5666 H   0  0  0  0  0  0  0  0  0  0  0  0
  -10.3234   -4.7683   14.8181 H   0  0  0  0  0  0  0  0  0  0  0  0
  -11.7863   -5.5938   15.3959 H   0  0  0  0  0  0  0  0  0  0  0  0
   -9.4511   -2.6372   15.6386 H   0  0  0  0  0  0  0  0  0  0  0  0
   -9.5548   -1.6703   14.2266 H   0  0  0  0  0  0  0  0  0  0  0  0
  -10.4162   -1.1074   17.1339 H   0  0  0  0  0  0  0  0  0  0  0  0
   -9.3783   -0.0847   16.1317 H   0  0  0  0  0  0  0  0  0  0  0  0
  -11.3122    0.8261   15.0910 H   0  0  0  0  0  0  0  0  0  0  0  0
  -12.2533   -0.0691   16.3011 H   0  0  0  0  0  0  0  0  0  0  0  0
  -11.4621   -0.9382   13.4940 H   0  0  0  0  0  0  0  0  0  0  0  0
  -12.8969   -1.2553   14.4189 H   0  0  0  0  0  0  0  0  0  0  0  0
   -5.1566   -7.2351   23.4289 H   0  0  0  0  0  0  0  0  0  0  0  0
   -3.3934   -9.4547   23.4572 H   0  0  0  0  0  0  0  0  0  0  0  0
   -1.7764   -9.9596   21.7666 H   0  0  0  0  0  0  0  0  0  0  0  0
   -2.7049   -8.3962   19.8930 H   0  0  0  0  0  0  0  0  0  0  0  0
  1  2  2  0
  2  3  1  0
  3  4  1  0
  4  5  1  0
  5  6  1  0
  5  7  1  0
  7  8  1  0
  8  9  1  0
  9 10  1  0
 10 11  2  0
 10 12  1  0
 12 13  1  0
 13 14  1  0
 14 15  1  0
 15 16  1  0
  2 17  1  0
 17 18  2  0
 18 19  1  0
 19 20  2  0
 20 21  1  0
 21 22  2  0
 16 12  1  0
 22 17  1  0
  3 23  1  0
  4 24  1  0
  4 25  1  0
  5 26  1  0
  6 27  1  0
  7 28  1  0
  7 29  1  0
  8 30  1  0
  9 31  1  0
  9 32  1  0
 13 33  1  0
 13 34  1  0
 14 35  1  0
 14 36  1  0
 15 37  1  0
 15 38  1  0
 16 39  1  0
 16 40  1  0
 18 41  1  0
 19 42  1  0
 20 43  1  0
 21 44  1  0
M  END
>  <Energy>  (507) 
520.60570733103168

>  <compound_id>  (507) 
7880

>  <target_id>  (507) 
1

>  <reference_id>  (507) 
56

>  <inspiration_ids>  (507) 
[56, 99]

>  <energy_score>  (507) 
367.76775703265605

>  <distance_score>  (507) 
10.79832934922305

>  <path>  (507) 
/opt/xchem-fragalysis-2/maxwin/BulkDock/SCRATCH/511014/C7880-P56/C7880-P56.minimised.mol

>  <scratch_subdir>  (507) 
/opt/xchem-fragalysis-2/maxwin/BulkDock/SCRATCH/511014/C7880-P56

>  <fragmenstein_runtime>  (507) 
34.487168312072754

>  <fragmenstein_outcome>  (507) 
too moved

>  <fragmenstein_mode>  (507) 
expansion

>  <fragmenstein_error>  (507) 


$$$$
C7880-P99
     RDKit          3D

 44 45  0  0  0  0  0  0  0  0999 V2000
   -3.5098   -2.8716   22.1320 O   0  0  0  0  0  0  0  0  0  0  0  0
   -3.6790   -4.0656   22.1484 C   0  0  0  0  0  0  0  0  0  0  0  0
   -4.3435   -4.9984   20.8765 N   0  0  0  0  0  0  0  0  0  0  0  0
   -4.8581   -4.5095   19.0645 C   0  0  0  0  0  0  0  0  0  0  0  0
   -5.2493   -5.2307   17.1154 C   0  0  0  0  0  0  0  0  0  0  0  0
   -4.5308   -6.5038   16.8665 O   0  0  0  0  0  0  0  0  0  0  0  0
   -5.4548   -4.8054   15.1767 C   0  0  0  0  0  0  0  0  0  0  0  0
   -6.2133   -5.5627   13.6702 N   0  0  0  0  0  0  0  0  0  0  0  0
   -6.1898   -5.2905   11.7670 C   0  0  0  0  0  0  0  0  0  0  0  0
   -7.3777   -4.9358   10.0182 C   0  0  0  0  0  0  0  0  0  0  0  0
   -8.5511   -4.8972   10.2346 O   0  0  0  0  0  0  0  0  0  0  0  0
   -6.9907   -4.8332    8.3069 N   0  0  0  0  0  0  0  0  0  0  0  0
   -6.7317   -3.2426    7.6401 C   0  0  0  0  0  0  0  0  0  0  0  0
   -8.0226   -2.5115    7.4752 C   0  0  0  0  0  0  0  0  0  0  0  0
   -8.7751   -3.6063    6.8393 C   0  0  0  0  0  0  0  0  0  0  0  0
   -7.8621   -4.8147    7.0524 C   0  0  0  0  0  0  0  0  0  0  0  0
   -2.8663   -4.8368   23.8235 C   0  0  0  0  0  0  0  0  0  0  0  0
   -1.8049   -5.6508   24.0073 C   0  0  0  0  0  0  0  0  0  0  0  0
   -0.7711   -5.3685   25.1127 C   0  0  0  0  0  0  0  0  0  0  0  0
   -0.8801   -4.7781   26.7509 C   0  0  0  0  0  0  0  0  0  0  0  0
   -1.8976   -5.2869   26.2434 C   0  0  0  0  0  0  0  0  0  0  0  0
   -2.7408   -4.3006   24.9900 N   0  0  0  0  0  0  0  0  0  0  0  0
   -4.4474   -5.9364   21.1847 H   0  0  0  0  0  0  0  0  0  0  0  0
   -5.7746   -4.7560   19.5570 H   0  0  0  0  0  0  0  0  0  0  0  0
   -3.8984   -4.9052   18.9217 H   0  0  0  0  0  0  0  0  0  0  0  0
   -6.2289   -5.7039   17.0846 H   0  0  0  0  0  0  0  0  0  0  0  0
   -5.0614   -7.0340   16.2420 H   0  0  0  0  0  0  0  0  0  0  0  0
   -5.8164   -3.7822   15.1166 H   0  0  0  0  0  0  0  0  0  0  0  0
   -4.4412   -5.0244   14.8560 H   0  0  0  0  0  0  0  0  0  0  0  0
   -5.8840   -6.5329   13.7192 H   0  0  0  0  0  0  0  0  0  0  0  0
   -7.1856   -5.3386   12.2776 H   0  0  0  0  0  0  0  0  0  0  0  0
   -5.6441   -6.2365   11.5720 H   0  0  0  0  0  0  0  0  0  0  0  0
   -5.9962   -2.5697    8.1015 H   0  0  0  0  0  0  0  0  0  0  0  0
   -6.2128   -3.4115    6.6758 H   0  0  0  0  0  0  0  0  0  0  0  0
   -8.4603   -2.2246    8.4328 H   0  0  0  0  0  0  0  0  0  0  0  0
   -7.9345   -1.6238    6.8437 H   0  0  0  0  0  0  0  0  0  0  0  0
   -8.9481   -3.4436    5.7701 H   0  0  0  0  0  0  0  0  0  0  0  0
   -9.7515   -3.7080    7.3099 H   0  0  0  0  0  0  0  0  0  0  0  0
   -8.5803   -5.6102    7.1886 H   0  0  0  0  0  0  0  0  0  0  0  0
   -7.2526   -5.0623    6.1740 H   0  0  0  0  0  0  0  0  0  0  0  0
   -1.8774   -6.6987   23.7396 H   0  0  0  0  0  0  0  0  0  0  0  0
    0.1471   -5.1589   24.4733 H   0  0  0  0  0  0  0  0  0  0  0  0
   -0.0261   -4.5475   27.3430 H   0  0  0  0  0  0  0  0  0  0  0  0
   -2.1742   -6.3779   26.3945 H   0  0  0  0  0  0  0  0  0  0  0  0
  1  2  2  0
  2  3  1  0
  3  4  1  0
  4  5  1  0
  5  6  1  0
  5  7  1  0
  7  8  1  0
  8  9  1  0
  9 10  1  0
 10 11  2  0
 10 12  1  0
 12 13  1  0
 13 14  1  0
 14 15  1  0
 15 16  1  0
  2 17  1  0
 17 18  2  0
 18 19  1  0
 19 20  2  0
 20 21  1  0
 21 22  2  0
 16 12  1  0
 22 17  1  0
  3 23  1  0
  4 24  1  0
  4 25  1  0
  5 26  1  0
  6 27  1  0
  7 28  1  0
  7 29  1  0
  8 30  1  0
  9 31  1  0
  9 32  1  0
 13 33  1  0
 13 34  1  0
 14 35  1  0
 14 36  1  0
 15 37  1  0
 15 38  1  0
 16 39  1  0
 16 40  1  0
 18 41  1  0
 19 42  1  0
 20 43  1  0
 21 44  1  0
M  END
>  <Energy>  (508) 
1305.7426045785407

>  <compound_id>  (508) 
7880

>  <target_id>  (508) 
1

>  <reference_id>  (508) 
99

>  <inspiration_ids>  (508) 
[56, 99]

>  <energy_score>  (508) 
1152.9046542801468

>  <distance_score>  (508) 
7.552984648997864

>  <path>  (508) 
/opt/xchem-fragalysis-2/maxwin/BulkDock/SCRATCH/511014/C7880-P99/C7880-P99.minimised.mol

>  <scratch_subdir>  (508) 
/opt/xchem-fragalysis-2/maxwin/BulkDock/SCRATCH/511014/C7880-P99

>  <fragmenstein_runtime>  (508) 
26.754372596740723

>  <fragmenstein_outcome>  (508) 
too moved

>  <fragmenstein_mode>  (508) 
expansion

>  <fragmenstein_error>  (508) 


$$$$
C15933-P56
     RDKit          3D

 36 39  0  0  0  0  0  0  0  0999 V2000
   -6.9142   -5.0754   10.3115 O   0  0  0  0  0  0  0  0  0  0  0  0
   -7.0464   -5.7167    9.3209 C   0  0  0  0  0  0  0  0  0  0  0  0
   -6.4875   -7.5382    9.6497 C   0  0  0  0  0  0  0  0  0  0  0  0
   -5.7314   -7.6252   10.8327 C   0  0  0  0  0  0  0  0  0  0  0  0
   -5.5476   -8.8223   11.4994 C   0  0  0  0  0  0  0  0  0  0  0  0
   -5.5635  -10.0231   10.8919 C   0  0  0  0  0  0  0  0  0  0  0  0
   -5.1699  -11.0970   11.8576 C   0  0  0  0  0  0  0  0  0  0  0  0
   -5.9647  -11.5638   12.9702 C   0  0  0  0  0  0  0  0  0  0  0  0
   -5.2550  -11.9687   14.0319 N   0  0  0  0  0  0  0  0  0  0  0  0
   -3.9882  -11.7293   13.6648 N   0  0  0  0  0  0  0  0  0  0  0  0
   -3.8902  -11.1700   12.4130 C   0  0  0  0  0  0  0  0  0  0  0  0
   -5.9519   -9.8746    9.5605 C   0  0  0  0  0  0  0  0  0  0  0  0
   -6.5651   -8.6989    8.9480 N   0  0  0  0  0  0  0  0  0  0  0  0
   -7.7721   -5.0881    7.9387 N   0  0  0  0  0  0  0  0  0  0  0  0
   -6.7234   -4.3716    6.9100 C   0  0  0  0  0  0  0  0  0  0  0  0
   -7.6444   -3.3006    6.5839 C   0  0  0  0  0  0  0  0  0  0  0  0
   -7.2597   -1.8407    6.6335 C   0  0  0  0  0  0  0  0  0  0  0  0
   -8.2020   -1.6249    5.4242 C   0  0  0  0  0  0  0  0  0  0  0  0
   -8.2302   -3.1573    5.2048 C   0  0  0  0  0  0  0  0  0  0  0  0
   -8.4665   -3.7436    7.6815 C   0  0  0  0  0  0  0  0  0  0  0  0
   -5.4285   -6.6997   11.3032 H   0  0  0  0  0  0  0  0  0  0  0  0
   -5.3416   -8.8689   12.5562 H   0  0  0  0  0  0  0  0  0  0  0  0
   -7.0450  -11.5408   13.0515 H   0  0  0  0  0  0  0  0  0  0  0  0
   -3.2439  -11.9146   14.3310 H   0  0  0  0  0  0  0  0  0  0  0  0
   -2.9379  -10.7968   12.0611 H   0  0  0  0  0  0  0  0  0  0  0  0
   -5.8552  -10.7030    8.8589 H   0  0  0  0  0  0  0  0  0  0  0  0
   -6.5735   -5.0314    6.0617 H   0  0  0  0  0  0  0  0  0  0  0  0
   -5.8234   -3.9408    7.3424 H   0  0  0  0  0  0  0  0  0  0  0  0
   -7.5459   -1.2788    7.5290 H   0  0  0  0  0  0  0  0  0  0  0  0
   -6.2105   -1.6346    6.4442 H   0  0  0  0  0  0  0  0  0  0  0  0
   -7.7836   -1.0398    4.6011 H   0  0  0  0  0  0  0  0  0  0  0  0
   -9.1766   -1.2066    5.7001 H   0  0  0  0  0  0  0  0  0  0  0  0
   -9.2254   -3.5811    5.0420 H   0  0  0  0  0  0  0  0  0  0  0  0
   -7.5743   -3.4891    4.3928 H   0  0  0  0  0  0  0  0  0  0  0  0
   -8.4536   -3.1221    8.5788 H   0  0  0  0  0  0  0  0  0  0  0  0
   -9.5080   -3.8675    7.3957 H   0  0  0  0  0  0  0  0  0  0  0  0
  1  2  2  0
  2  3  1  0
  3  4  2  0
  4  5  1  0
  5  6  2  0
  6  7  1  0
  7  8  1  0
  8  9  2  0
  9 10  1  0
 10 11  1  0
  6 12  1  0
 12 13  2  0
  2 14  1  0
 14 15  1  0
 15 16  1  0
 16 17  1  0
 17 18  1  0
 18 19  1  0
 16 20  1  0
 13  3  1  0
 20 14  1  0
 11  7  2  0
 19 16  1  0
  4 21  1  0
  5 22  1  0
  8 23  1  0
 10 24  1  0
 11 25  1  0
 12 26  1  0
 15 27  1  0
 15 28  1  0
 17 29  1  0
 17 30  1  0
 18 31  1  0
 18 32  1  0
 19 33  1  0
 19 34  1  0
 20 35  1  0
 20 36  1  0
M  END
>  <Energy>  (509) 
258.46565801844838

>  <compound_id>  (509) 
15933

>  <target_id>  (509) 
1

>  <reference_id>  (509) 
56

>  <inspiration_ids>  (509) 
[56, 99]

>  <energy_score>  (509) 
129.5974459274338

>  <distance_score>  (509) 
13.16005264222841

>  <path>  (509) 
/opt/xchem-fragalysis-2/maxwin/BulkDock/SCRATCH/511014/C15933-P56/C15933-P56.minimised.mol

>  <scratch_subdir>  (509) 
/opt/xchem-fragalysis-2/maxwin/BulkDock/SCRATCH/511014/C15933-P56

>  <fragmenstein_runtime>  (509) 
28.127421617507935

>  <fragmenstein_outcome>  (509) 
too moved

>  <fragmenstein_mode>  (509) 
expansion

>  <fragmenstein_error>  (509) 


$$$$
C15933-P99
     RDKit          3D

 36 39  0  0  0  0  0  0  0  0999 V2000
   -6.6742    0.5637   13.8631 O   0  0  0  0  0  0  0  0  0  0  0  0
   -6.8589   -0.4389   13.1918 C   0  0  0  0  0  0  0  0  0  0  0  0
   -6.6303   -2.0017   14.2812 C   0  0  0  0  0  0  0  0  0  0  0  0
   -5.6566   -1.9788   15.0297 C   0  0  0  0  0  0  0  0  0  0  0  0
   -4.8471   -3.4566   15.9995 C   0  0  0  0  0  0  0  0  0  0  0  0
   -4.8674   -4.6760   16.4567 C   0  0  0  0  0  0  0  0  0  0  0  0
   -4.9887   -4.6766   18.2745 C   0  0  0  0  0  0  0  0  0  0  0  0
   -4.1702   -4.3144   19.3142 C   0  0  0  0  0  0  0  0  0  0  0  0
   -4.1663   -4.8769   20.5873 N   0  0  0  0  0  0  0  0  0  0  0  0
   -5.3885   -4.8351   20.8677 N   0  0  0  0  0  0  0  0  0  0  0  0
   -5.8334   -4.4228   19.6677 C   0  0  0  0  0  0  0  0  0  0  0  0
   -5.4282   -4.5205   15.0831 C   0  0  0  0  0  0  0  0  0  0  0  0
   -6.3188   -3.4447   14.0519 N   0  0  0  0  0  0  0  0  0  0  0  0
   -7.4383   -0.4179   11.4839 N   0  0  0  0  0  0  0  0  0  0  0  0
   -6.5032   -0.3562    9.9315 C   0  0  0  0  0  0  0  0  0  0  0  0
   -7.4916    0.4242    9.2485 C   0  0  0  0  0  0  0  0  0  0  0  0
   -7.1176    1.3884    8.1544 C   0  0  0  0  0  0  0  0  0  0  0  0
   -8.4656    1.0363    7.4800 C   0  0  0  0  0  0  0  0  0  0  0  0
   -8.4836   -0.2634    8.3130 C   0  0  0  0  0  0  0  0  0  0  0  0
   -7.9291    0.7972   10.5668 C   0  0  0  0  0  0  0  0  0  0  0  0
   -5.6454   -0.9121   15.0677 H   0  0  0  0  0  0  0  0  0  0  0  0
   -3.7367   -3.4693   16.2248 H   0  0  0  0  0  0  0  0  0  0  0  0
   -3.8589   -3.2662   19.1939 H   0  0  0  0  0  0  0  0  0  0  0  0
   -5.7383   -4.8026   21.8229 H   0  0  0  0  0  0  0  0  0  0  0  0
   -6.6489   -3.7526   19.8834 H   0  0  0  0  0  0  0  0  0  0  0  0
   -4.7487   -4.7980   14.2971 H   0  0  0  0  0  0  0  0  0  0  0  0
   -5.4331   -0.1731    9.8358 H   0  0  0  0  0  0  0  0  0  0  0  0
   -6.6183   -1.3171    9.3905 H   0  0  0  0  0  0  0  0  0  0  0  0
   -7.0196    2.4485    8.3845 H   0  0  0  0  0  0  0  0  0  0  0  0
   -6.2465    1.0793    7.5639 H   0  0  0  0  0  0  0  0  0  0  0  0
   -8.4324    0.9054    6.3954 H   0  0  0  0  0  0  0  0  0  0  0  0
   -9.2770    1.7289    7.7321 H   0  0  0  0  0  0  0  0  0  0  0  0
   -9.4603   -0.5406    8.7200 H   0  0  0  0  0  0  0  0  0  0  0  0
   -8.0851   -1.1227    7.7598 H   0  0  0  0  0  0  0  0  0  0  0  0
   -9.0353    0.7008   10.5577 H   0  0  0  0  0  0  0  0  0  0  0  0
   -7.9040    1.7346   11.0712 H   0  0  0  0  0  0  0  0  0  0  0  0
  1  2  2  0
  2  3  1  0
  3  4  2  0
  4  5  1  0
  5  6  2  0
  6  7  1  0
  7  8  1  0
  8  9  2  0
  9 10  1  0
 10 11  1  0
  6 12  1  0
 12 13  2  0
  2 14  1  0
 14 15  1  0
 15 16  1  0
 16 17  1  0
 17 18  1  0
 18 19  1  0
 16 20  1  0
 13  3  1  0
 20 14  1  0
 11  7  2  0
 19 16  1  0
  4 21  1  0
  5 22  1  0
  8 23  1  0
 10 24  1  0
 11 25  1  0
 12 26  1  0
 15 27  1  0
 15 28  1  0
 17 29  1  0
 17 30  1  0
 18 31  1  0
 18 32  1  0
 19 33  1  0
 19 34  1  0
 20 35  1  0
 20 36  1  0
M  END
>  <Energy>  (510) 
864.80101631716821

>  <compound_id>  (510) 
15933

>  <target_id>  (510) 
1

>  <reference_id>  (510) 
99

>  <inspiration_ids>  (510) 
[56, 99]

>  <energy_score>  (510) 
735.9328042261408

>  <distance_score>  (510) 
9.996607659431156

>  <path>  (510) 
/opt/xchem-fragalysis-2/maxwin/BulkDock/SCRATCH/511014/C15933-P99/C15933-P99.minimised.mol

>  <scratch_subdir>  (510) 
/opt/xchem-fragalysis-2/maxwin/BulkDock/SCRATCH/511014/C15933-P99

>  <fragmenstein_runtime>  (510) 
22.85077452659607

>  <fragmenstein_outcome>  (510) 
too moved

>  <fragmenstein_mode>  (510) 
expansion

>  <fragmenstein_error>  (510) 


$$$$
C15935-P56
     RDKit          3D

 33 35  0  0  0  0  0  0  0  0999 V2000
   -2.5357   -4.9997   23.9498 O   0  0  0  0  0  0  0  0  0  0  0  0
   -2.7104   -6.1974   23.7164 C   0  0  0  0  0  0  0  0  0  0  0  0
   -1.3836   -7.1778   24.4804 C   0  0  0  0  0  0  0  0  0  0  0  0
   -1.3151   -7.8330   25.9243 C   0  0  0  0  0  0  0  0  0  0  0  0
   -1.3494   -7.0816   27.2340 C   0  0  0  0  0  0  0  0  0  0  0  0
   -2.0615   -7.5104   28.3945 C   0  0  0  0  0  0  0  0  0  0  0  0
   -1.9214   -6.6944   29.4387 N   0  0  0  0  0  0  0  0  0  0  0  0
   -1.0506   -5.7725   28.9961 N   0  0  0  0  0  0  0  0  0  0  0  0
   -0.6376   -5.9992   27.7102 C   0  0  0  0  0  0  0  0  0  0  0  0
   -3.9618   -6.9977   22.7620 N   0  0  0  0  0  0  0  0  0  0  0  0
   -5.1309   -6.4572   22.1075 C   0  0  0  0  0  0  0  0  0  0  0  0
   -6.2882   -7.1089   22.0099 N   0  0  0  0  0  0  0  0  0  0  0  0
   -7.2377   -6.4770   21.1646 N   0  0  0  0  0  0  0  0  0  0  0  0
   -6.7822   -5.4268   20.4831 C   0  0  0  0  0  0  0  0  0  0  0  0
   -7.2521   -4.8943   19.1390 C   0  0  0  0  0  0  0  0  0  0  0  0
   -8.1178   -5.6259   18.3283 C   0  0  0  0  0  0  0  0  0  0  0  0
   -8.3261   -5.2359   16.9963 C   0  0  0  0  0  0  0  0  0  0  0  0
   -7.6641   -4.1275   16.4918 C   0  0  0  0  0  0  0  0  0  0  0  0
   -6.8238   -3.4424   17.3435 C   0  0  0  0  0  0  0  0  0  0  0  0
   -6.6268   -3.7861   18.6440 N   0  0  0  0  0  0  0  0  0  0  0  0
   -5.2392   -4.9031   21.0790 S   0  0  0  0  0  0  0  0  0  0  0  0
   -0.5281   -6.4942   24.4510 H   0  0  0  0  0  0  0  0  0  0  0  0
   -1.1689   -7.9818   23.7573 H   0  0  0  0  0  0  0  0  0  0  0  0
   -2.0561   -8.6384   25.9918 H   0  0  0  0  0  0  0  0  0  0  0  0
   -0.3676   -8.3897   25.9422 H   0  0  0  0  0  0  0  0  0  0  0  0
   -2.6908   -8.3858   28.4991 H   0  0  0  0  0  0  0  0  0  0  0  0
   -0.7786   -5.0182   29.6209 H   0  0  0  0  0  0  0  0  0  0  0  0
    0.1059   -5.3562   27.2709 H   0  0  0  0  0  0  0  0  0  0  0  0
   -3.8663   -8.0013   22.8400 H   0  0  0  0  0  0  0  0  0  0  0  0
   -8.5915   -6.5271   18.7084 H   0  0  0  0  0  0  0  0  0  0  0  0
   -8.9894   -5.8152   16.3592 H   0  0  0  0  0  0  0  0  0  0  0  0
   -7.7906   -3.8115   15.4621 H   0  0  0  0  0  0  0  0  0  0  0  0
   -6.2612   -2.5766   17.0026 H   0  0  0  0  0  0  0  0  0  0  0  0
  1  2  2  0
  2  3  1  0
  3  4  1  0
  4  5  1  0
  5  6  1  0
  6  7  2  0
  7  8  1  0
  8  9  1  0
  2 10  1  0
 10 11  1  0
 11 12  2  0
 12 13  1  0
 13 14  2  0
 14 15  1  0
 15 16  2  0
 16 17  1  0
 17 18  2  0
 18 19  1  0
 19 20  2  0
 14 21  1  0
  9  5  2  0
 21 11  1  0
 20 15  1  0
  3 22  1  0
  3 23  1  0
  4 24  1  0
  4 25  1  0
  6 26  1  0
  8 27  1  0
  9 28  1  0
 10 29  1  0
 16 30  1  0
 17 31  1  0
 18 32  1  0
 19 33  1  0
M  END
>  <Energy>  (511) 
130.48244488241696

>  <compound_id>  (511) 
15935

>  <target_id>  (511) 
1

>  <reference_id>  (511) 
56

>  <inspiration_ids>  (511) 
[56, 99]

>  <energy_score>  (511) 
13.58725441795167

>  <distance_score>  (511) 
12.82841400929594

>  <path>  (511) 
/opt/xchem-fragalysis-2/maxwin/BulkDock/SCRATCH/511014/C15935-P56/C15935-P56.minimised.mol

>  <scratch_subdir>  (511) 
/opt/xchem-fragalysis-2/maxwin/BulkDock/SCRATCH/511014/C15935-P56

>  <fragmenstein_runtime>  (511) 
8.338854551315308

>  <fragmenstein_outcome>  (511) 
too moved

>  <fragmenstein_mode>  (511) 
expansion

>  <fragmenstein_error>  (511) 


$$$$
C15935-P99
     RDKit          3D

 33 35  0  0  0  0  0  0  0  0999 V2000
    0.2022    0.9032   28.4920 O   0  0  0  0  0  0  0  0  0  0  0  0
   -0.9318    0.8413   28.8711 C   0  0  0  0  0  0  0  0  0  0  0  0
   -1.3225    0.1005   30.1845 C   0  0  0  0  0  0  0  0  0  0  0  0
   -0.1776   -0.5635   30.9764 C   0  0  0  0  0  0  0  0  0  0  0  0
   -0.6507   -1.3157   32.1932 C   0  0  0  0  0  0  0  0  0  0  0  0
   -0.3048   -1.0962   33.5491 C   0  0  0  0  0  0  0  0  0  0  0  0
   -0.9068   -1.9432   34.3877 N   0  0  0  0  0  0  0  0  0  0  0  0
   -1.6427   -2.7288   33.5789 N   0  0  0  0  0  0  0  0  0  0  0  0
   -1.5058   -2.3988   32.2585 C   0  0  0  0  0  0  0  0  0  0  0  0
   -2.1530    1.3699   28.2948 N   0  0  0  0  0  0  0  0  0  0  0  0
   -2.3819    2.0140   27.1092 C   0  0  0  0  0  0  0  0  0  0  0  0
   -3.6101    2.2823   26.7486 N   0  0  0  0  0  0  0  0  0  0  0  0
   -3.6791    2.8609   25.4977 N   0  0  0  0  0  0  0  0  0  0  0  0
   -2.5113    2.9730   24.8790 C   0  0  0  0  0  0  0  0  0  0  0  0
   -2.3205    3.3784   23.4240 C   0  0  0  0  0  0  0  0  0  0  0  0
   -1.0836    3.4610   22.7830 C   0  0  0  0  0  0  0  0  0  0  0  0
   -1.0073    3.8569   21.4380 C   0  0  0  0  0  0  0  0  0  0  0  0
   -2.1651    4.1998   20.7605 C   0  0  0  0  0  0  0  0  0  0  0  0
   -3.3630    4.0653   21.4307 C   0  0  0  0  0  0  0  0  0  0  0  0
   -3.4581    3.6624   22.7231 N   0  0  0  0  0  0  0  0  0  0  0  0
   -1.2099    2.5411   25.9868 S   0  0  0  0  0  0  0  0  0  0  0  0
   -1.8285    0.8253   30.8357 H   0  0  0  0  0  0  0  0  0  0  0  0
   -2.0575   -0.6685   29.9120 H   0  0  0  0  0  0  0  0  0  0  0  0
    0.3624   -1.2582   30.3210 H   0  0  0  0  0  0  0  0  0  0  0  0
    0.5456    0.2052   31.2752 H   0  0  0  0  0  0  0  0  0  0  0  0
    0.3607   -0.3459   33.9570 H   0  0  0  0  0  0  0  0  0  0  0  0
   -2.2161   -3.4707   33.9875 H   0  0  0  0  0  0  0  0  0  0  0  0
   -2.0341   -2.9564   31.4978 H   0  0  0  0  0  0  0  0  0  0  0  0
   -2.9414    1.0554   28.8437 H   0  0  0  0  0  0  0  0  0  0  0  0
   -0.1621    3.2583   23.3174 H   0  0  0  0  0  0  0  0  0  0  0  0
   -0.0402    3.9189   20.9430 H   0  0  0  0  0  0  0  0  0  0  0  0
   -2.1348    4.5341   19.7298 H   0  0  0  0  0  0  0  0  0  0  0  0
   -4.3102    4.2921   20.9506 H   0  0  0  0  0  0  0  0  0  0  0  0
  1  2  2  0
  2  3  1  0
  3  4  1  0
  4  5  1  0
  5  6  1  0
  6  7  2  0
  7  8  1  0
  8  9  1  0
  2 10  1  0
 10 11  1  0
 11 12  2  0
 12 13  1  0
 13 14  2  0
 14 15  1  0
 15 16  2  0
 16 17  1  0
 17 18  2  0
 18 19  1  0
 19 20  2  0
 14 21  1  0
  9  5  2  0
 21 11  1  0
 20 15  1  0
  3 22  1  0
  3 23  1  0
  4 24  1  0
  4 25  1  0
  6 26  1  0
  8 27  1  0
  9 28  1  0
 10 29  1  0
 16 30  1  0
 17 31  1  0
 18 32  1  0
 19 33  1  0
M  END
>  <Energy>  (512) 
26.229989873061875

>  <compound_id>  (512) 
15935

>  <target_id>  (512) 
1

>  <reference_id>  (512) 
99

>  <inspiration_ids>  (512) 
[56, 99]

>  <energy_score>  (512) 
-90.66520059140402

>  <distance_score>  (512) 
11.950151670699588

>  <path>  (512) 
/opt/xchem-fragalysis-2/maxwin/BulkDock/SCRATCH/511014/C15935-P99/C15935-P99.minimised.mol

>  <scratch_subdir>  (512) 
/opt/xchem-fragalysis-2/maxwin/BulkDock/SCRATCH/511014/C15935-P99

>  <fragmenstein_runtime>  (512) 
12.51170802116394

>  <fragmenstein_outcome>  (512) 
too moved

>  <fragmenstein_mode>  (512) 
expansion

>  <fragmenstein_error>  (512) 


$$$$
C15939-P56
     RDKit          3D

 42 43  0  0  0  0  0  0  0  0999 V2000
   -4.6857   -0.5587    9.8605 C   0  0  0  0  0  0  0  0  0  0  0  0
   -4.9621   -0.6442   11.8018 C   0  0  0  0  0  0  0  0  0  0  0  0
   -6.2356    0.0759   12.3595 N   0  0  0  0  0  0  0  0  0  0  0  0
   -6.0407   -1.2920   14.0004 C   0  0  0  0  0  0  0  0  0  0  0  0
   -5.7721   -3.1366   15.2014 C   0  0  0  0  0  0  0  0  0  0  0  0
   -6.0397   -4.5348   14.5905 C   0  0  0  0  0  0  0  0  0  0  0  0
   -4.5799   -3.8314   16.8321 N   0  0  0  0  0  0  0  0  0  0  0  0
   -5.0183   -4.5517   18.6233 C   0  0  0  0  0  0  0  0  0  0  0  0
   -6.1336   -4.6828   18.7097 O   0  0  0  0  0  0  0  0  0  0  0  0
   -4.1952   -4.9629   20.4570 C   0  0  0  0  0  0  0  0  0  0  0  0
   -3.8208   -4.2936   21.8774 N   0  0  0  0  0  0  0  0  0  0  0  0
   -3.0284   -4.9506   23.4458 C   0  0  0  0  0  0  0  0  0  0  0  0
   -2.9518   -6.1894   23.6255 C   0  0  0  0  0  0  0  0  0  0  0  0
   -4.1216   -6.7342   22.8481 C   0  0  0  0  0  0  0  0  0  0  0  0
   -4.3411   -6.1914   21.5093 C   0  0  0  0  0  0  0  0  0  0  0  0
   -3.3748   -7.6452   21.0462 O   0  0  0  0  0  0  0  0  0  0  0  0
   -7.5198    0.1696   11.0043 C   0  0  0  0  0  0  0  0  0  0  0  0
   -8.3252   -0.6507   10.8883 O   0  0  0  0  0  0  0  0  0  0  0  0
   -7.6454    1.1417    9.8430 C   0  0  0  0  0  0  0  0  0  0  0  0
   -7.0424    1.2025    8.5356 C   0  0  0  0  0  0  0  0  0  0  0  0
   -7.7372    1.8982    7.6317 N   0  0  0  0  0  0  0  0  0  0  0  0
   -8.8860    2.1478    8.2657 N   0  0  0  0  0  0  0  0  0  0  0  0
   -8.9056    1.6892    9.5440 C   0  0  0  0  0  0  0  0  0  0  0  0
   -5.6578   -0.6007    9.3757 H   0  0  0  0  0  0  0  0  0  0  0  0
   -4.0915    0.2978    9.5369 H   0  0  0  0  0  0  0  0  0  0  0  0
   -4.1653   -1.4056    9.4167 H   0  0  0  0  0  0  0  0  0  0  0  0
   -4.4495    0.2540   11.7721 H   0  0  0  0  0  0  0  0  0  0  0  0
   -3.9058   -0.5739   12.1772 H   0  0  0  0  0  0  0  0  0  0  0  0
   -7.0579   -1.1004   14.3522 H   0  0  0  0  0  0  0  0  0  0  0  0
   -5.5484   -0.5806   14.6877 H   0  0  0  0  0  0  0  0  0  0  0  0
   -6.7945   -2.8950   15.4414 H   0  0  0  0  0  0  0  0  0  0  0  0
   -5.3138   -4.8278   13.8359 H   0  0  0  0  0  0  0  0  0  0  0  0
   -7.0679   -4.6273   14.2284 H   0  0  0  0  0  0  0  0  0  0  0  0
   -5.9701   -5.2968   15.3763 H   0  0  0  0  0  0  0  0  0  0  0  0
   -3.5473   -3.8027   16.7439 H   0  0  0  0  0  0  0  0  0  0  0  0
   -2.8631   -4.1257   24.1726 H   0  0  0  0  0  0  0  0  0  0  0  0
   -2.1434   -6.5563   24.2726 H   0  0  0  0  0  0  0  0  0  0  0  0
   -4.4810   -7.7472   22.8571 H   0  0  0  0  0  0  0  0  0  0  0  0
   -3.0129   -8.0923   21.8364 H   0  0  0  0  0  0  0  0  0  0  0  0
   -6.1329    0.7657    8.1602 H   0  0  0  0  0  0  0  0  0  0  0  0
   -9.6318    2.6044    7.7514 H   0  0  0  0  0  0  0  0  0  0  0  0
   -9.8092    1.7264   10.1359 H   0  0  0  0  0  0  0  0  0  0  0  0
  1  2  1  0
  2  3  1  0
  3  4  1  0
  4  5  1  0
  5  6  1  0
  5  7  1  0
  7  8  1  0
  8  9  2  0
  8 10  1  0
 10 11  2  0
 11 12  1  0
 12 13  2  0
 13 14  1  0
 14 15  2  0
 15 16  1  0
  3 17  1  0
 17 18  2  0
 17 19  1  0
 19 20  1  0
 20 21  2  0
 21 22  1  0
 22 23  1  0
 15 10  1  0
 23 19  2  0
  1 24  1  0
  1 25  1  0
  1 26  1  0
  2 27  1  0
  2 28  1  0
  4 29  1  0
  4 30  1  0
  5 31  1  0
  6 32  1  0
  6 33  1  0
  6 34  1  0
  7 35  1  0
 12 36  1  0
 13 37  1  0
 14 38  1  0
 16 39  1  0
 20 40  1  0
 22 41  1  0
 23 42  1  0
M  END
>  <Energy>  (513) 
1405.1624110298649

>  <compound_id>  (513) 
15939

>  <target_id>  (513) 
1

>  <reference_id>  (513) 
56

>  <inspiration_ids>  (513) 
[56, 99]

>  <energy_score>  (513) 
1287.2635810942695

>  <distance_score>  (513) 
8.12178336640849

>  <path>  (513) 
/opt/xchem-fragalysis-2/maxwin/BulkDock/SCRATCH/511014/C15939-P56/C15939-P56.minimised.mol

>  <scratch_subdir>  (513) 
/opt/xchem-fragalysis-2/maxwin/BulkDock/SCRATCH/511014/C15939-P56

>  <fragmenstein_runtime>  (513) 
19.407716989517212

>  <fragmenstein_outcome>  (513) 
too moved

>  <fragmenstein_mode>  (513) 
expansion

>  <fragmenstein_error>  (513) 


$$$$
C15939-P99
     RDKit          3D

 42 43  0  0  0  0  0  0  0  0999 V2000
   -4.6609   -3.3437    6.0313 C   0  0  0  0  0  0  0  0  0  0  0  0
   -4.0864   -4.0677    7.3378 C   0  0  0  0  0  0  0  0  0  0  0  0
   -3.3858   -3.3755    8.3185 N   0  0  0  0  0  0  0  0  0  0  0  0
   -3.7568   -5.0609    9.4107 C   0  0  0  0  0  0  0  0  0  0  0  0
   -4.9438   -6.2476   10.6487 C   0  0  0  0  0  0  0  0  0  0  0  0
   -5.3306   -5.7696   12.1481 C   0  0  0  0  0  0  0  0  0  0  0  0
   -5.0555   -7.8905   11.2362 N   0  0  0  0  0  0  0  0  0  0  0  0
   -5.3316   -8.4392   12.6818 C   0  0  0  0  0  0  0  0  0  0  0  0
   -5.6109   -7.8474   13.7015 O   0  0  0  0  0  0  0  0  0  0  0  0
   -5.1372   -9.9396   12.9896 C   0  0  0  0  0  0  0  0  0  0  0  0
   -6.1998  -10.3990   13.7394 N   0  0  0  0  0  0  0  0  0  0  0  0
   -5.9815  -10.8673   15.0104 C   0  0  0  0  0  0  0  0  0  0  0  0
   -4.7377  -11.0142   15.5960 C   0  0  0  0  0  0  0  0  0  0  0  0
   -3.6395  -10.7134   14.8071 C   0  0  0  0  0  0  0  0  0  0  0  0
   -3.8390  -10.2097   13.4991 C   0  0  0  0  0  0  0  0  0  0  0  0
   -2.7342   -9.9856   12.7121 O   0  0  0  0  0  0  0  0  0  0  0  0
   -3.9612   -1.9538    8.4459 C   0  0  0  0  0  0  0  0  0  0  0  0
   -4.8262   -1.5252    9.1541 O   0  0  0  0  0  0  0  0  0  0  0  0
   -3.5303   -0.9379    7.5300 C   0  0  0  0  0  0  0  0  0  0  0  0
   -2.7623   -1.1170    6.4104 C   0  0  0  0  0  0  0  0  0  0  0  0
   -3.4013   -0.8158    5.2658 N   0  0  0  0  0  0  0  0  0  0  0  0
   -4.5262   -0.2196    5.7010 N   0  0  0  0  0  0  0  0  0  0  0  0
   -4.5461   -0.0840    7.0657 C   0  0  0  0  0  0  0  0  0  0  0  0
   -3.9502   -3.2095    5.2278 H   0  0  0  0  0  0  0  0  0  0  0  0
   -5.4976   -3.9058    5.5870 H   0  0  0  0  0  0  0  0  0  0  0  0
   -5.2023   -2.4353    6.2748 H   0  0  0  0  0  0  0  0  0  0  0  0
   -3.4358   -4.8642    7.0147 H   0  0  0  0  0  0  0  0  0  0  0  0
   -5.1269   -3.9201    7.6647 H   0  0  0  0  0  0  0  0  0  0  0  0
   -4.7123   -5.0016    9.1009 H   0  0  0  0  0  0  0  0  0  0  0  0
   -3.3334   -5.8176    8.7944 H   0  0  0  0  0  0  0  0  0  0  0  0
   -5.8955   -6.3005   10.1114 H   0  0  0  0  0  0  0  0  0  0  0  0
   -4.6039   -5.8446   12.9637 H   0  0  0  0  0  0  0  0  0  0  0  0
   -5.6298   -4.7992   12.1511 H   0  0  0  0  0  0  0  0  0  0  0  0
   -6.2295   -6.2223   12.5483 H   0  0  0  0  0  0  0  0  0  0  0  0
   -4.9334   -8.6669   10.6005 H   0  0  0  0  0  0  0  0  0  0  0  0
   -6.8883  -11.1232   15.5532 H   0  0  0  0  0  0  0  0  0  0  0  0
   -4.6317  -11.3938   16.6039 H   0  0  0  0  0  0  0  0  0  0  0  0
   -2.6413  -10.8654   15.2055 H   0  0  0  0  0  0  0  0  0  0  0  0
   -1.9403  -10.2414   13.2170 H   0  0  0  0  0  0  0  0  0  0  0  0
   -1.8036   -1.5824    6.3873 H   0  0  0  0  0  0  0  0  0  0  0  0
   -5.2049    0.1061    5.0210 H   0  0  0  0  0  0  0  0  0  0  0  0
   -5.4401    0.2843    7.5515 H   0  0  0  0  0  0  0  0  0  0  0  0
  1  2  1  0
  2  3  1  0
  3  4  1  0
  4  5  1  0
  5  6  1  0
  5  7  1  0
  7  8  1  0
  8  9  2  0
  8 10  1  0
 10 11  2  0
 11 12  1  0
 12 13  2  0
 13 14  1  0
 14 15  2  0
 15 16  1  0
  3 17  1  0
 17 18  2  0
 17 19  1  0
 19 20  1  0
 20 21  2  0
 21 22  1  0
 22 23  1  0
 15 10  1  0
 23 19  2  0
  1 24  1  0
  1 25  1  0
  1 26  1  0
  2 27  1  0
  2 28  1  0
  4 29  1  0
  4 30  1  0
  5 31  1  0
  6 32  1  0
  6 33  1  0
  6 34  1  0
  7 35  1  0
 12 36  1  0
 13 37  1  0
 14 38  1  0
 16 39  1  0
 20 40  1  0
 22 41  1  0
 23 42  1  0
M  END
>  <Energy>  (514) 
578.69564080595012

>  <compound_id>  (514) 
15939

>  <target_id>  (514) 
1

>  <reference_id>  (514) 
99

>  <inspiration_ids>  (514) 
[56, 99]

>  <energy_score>  (514) 
460.7968108703369

>  <distance_score>  (514) 
12.167467184949512

>  <path>  (514) 
/opt/xchem-fragalysis-2/maxwin/BulkDock/SCRATCH/511014/C15939-P99/C15939-P99.minimised.mol

>  <scratch_subdir>  (514) 
/opt/xchem-fragalysis-2/maxwin/BulkDock/SCRATCH/511014/C15939-P99

>  <fragmenstein_runtime>  (514) 
18.574871063232422

>  <fragmenstein_outcome>  (514) 
too moved

>  <fragmenstein_mode>  (514) 
expansion

>  <fragmenstein_error>  (514) 


$$$$
C15940-P56
     RDKit          3D

 43 44  0  0  0  0  0  0  0  0999 V2000
   -5.7175   -5.8999   13.3325 C   0  0  0  0  0  0  0  0  0  0  0  0
   -5.6439   -5.8216   11.8179 C   0  0  0  0  0  0  0  0  0  0  0  0
   -5.1660   -6.5427   10.6027 N   0  0  0  0  0  0  0  0  0  0  0  0
   -4.8552   -7.8029   11.8265 C   0  0  0  0  0  0  0  0  0  0  0  0
   -5.3530   -8.5697   13.3576 C   0  0  0  0  0  0  0  0  0  0  0  0
   -6.7357   -9.2083   13.2938 C   0  0  0  0  0  0  0  0  0  0  0  0
   -5.0588   -8.0948   14.8526 N   0  0  0  0  0  0  0  0  0  0  0  0
   -4.2896   -8.7416   15.9442 C   0  0  0  0  0  0  0  0  0  0  0  0
   -3.6296   -9.7481   15.9457 O   0  0  0  0  0  0  0  0  0  0  0  0
   -4.4132   -8.0176   17.4008 C   0  0  0  0  0  0  0  0  0  0  0  0
   -5.1560   -6.8731   17.4342 N   0  0  0  0  0  0  0  0  0  0  0  0
   -5.3277   -6.2579   18.6522 C   0  0  0  0  0  0  0  0  0  0  0  0
   -4.8408   -6.7049   19.8690 C   0  0  0  0  0  0  0  0  0  0  0  0
   -4.0878   -7.8627   19.8467 C   0  0  0  0  0  0  0  0  0  0  0  0
   -3.8482   -8.5397   18.6234 C   0  0  0  0  0  0  0  0  0  0  0  0
   -2.8738   -9.5620   18.6962 N   0  0  0  0  0  0  0  0  0  0  0  0
   -4.0003   -5.4557    9.5881 C   0  0  0  0  0  0  0  0  0  0  0  0
   -2.8961   -5.5849    9.8917 O   0  0  0  0  0  0  0  0  0  0  0  0
   -4.1174   -4.2257    8.1020 C   0  0  0  0  0  0  0  0  0  0  0  0
   -3.4584   -2.8415    8.0016 C   0  0  0  0  0  0  0  0  0  0  0  0
   -4.2486   -1.8248    7.6067 N   0  0  0  0  0  0  0  0  0  0  0  0
   -5.3622   -2.4152    7.2201 N   0  0  0  0  0  0  0  0  0  0  0  0
   -5.2997   -3.7694    7.2875 C   0  0  0  0  0  0  0  0  0  0  0  0
   -6.5511   -6.5097   13.6606 H   0  0  0  0  0  0  0  0  0  0  0  0
   -5.9024   -4.9397   13.8252 H   0  0  0  0  0  0  0  0  0  0  0  0
   -4.7504   -6.1523   13.7641 H   0  0  0  0  0  0  0  0  0  0  0  0
   -4.8703   -5.1632   11.8271 H   0  0  0  0  0  0  0  0  0  0  0  0
   -6.4801   -5.2398   11.4832 H   0  0  0  0  0  0  0  0  0  0  0  0
   -3.7917   -7.9581   11.9583 H   0  0  0  0  0  0  0  0  0  0  0  0
   -5.1287   -8.6275   11.1469 H   0  0  0  0  0  0  0  0  0  0  0  0
   -4.6723   -9.4357   13.3194 H   0  0  0  0  0  0  0  0  0  0  0  0
   -7.0669   -9.3495   12.2635 H   0  0  0  0  0  0  0  0  0  0  0  0
   -7.4733   -8.6237   13.8440 H   0  0  0  0  0  0  0  0  0  0  0  0
   -6.7172  -10.1933   13.7751 H   0  0  0  0  0  0  0  0  0  0  0  0
   -5.5661   -7.2987   15.2303 H   0  0  0  0  0  0  0  0  0  0  0  0
   -5.9184   -5.3459   18.6075 H   0  0  0  0  0  0  0  0  0  0  0  0
   -5.0282   -6.1565   20.7835 H   0  0  0  0  0  0  0  0  0  0  0  0
   -3.6489   -8.2337   20.7689 H   0  0  0  0  0  0  0  0  0  0  0  0
   -2.8739  -10.1283   17.8380 H   0  0  0  0  0  0  0  0  0  0  0  0
   -2.9250  -10.1364   19.5310 H   0  0  0  0  0  0  0  0  0  0  0  0
   -2.5916   -2.4496    8.4804 H   0  0  0  0  0  0  0  0  0  0  0  0
   -6.1363   -1.8414    6.8987 H   0  0  0  0  0  0  0  0  0  0  0  0
   -6.2309   -4.2671    7.0313 H   0  0  0  0  0  0  0  0  0  0  0  0
  1  2  1  0
  2  3  1  0
  3  4  1  0
  4  5  1  0
  5  6  1  0
  5  7  1  0
  7  8  1  0
  8  9  2  0
  8 10  1  0
 10 11  2  0
 11 12  1  0
 12 13  2  0
 13 14  1  0
 14 15  2  0
 15 16  1  0
  3 17  1  0
 17 18  2  0
 17 19  1  0
 19 20  1  0
 20 21  2  0
 21 22  1  0
 22 23  1  0
 15 10  1  0
 23 19  2  0
  1 24  1  0
  1 25  1  0
  1 26  1  0
  2 27  1  0
  2 28  1  0
  4 29  1  0
  4 30  1  0
  5 31  1  0
  6 32  1  0
  6 33  1  0
  6 34  1  0
  7 35  1  0
 12 36  1  0
 13 37  1  0
 14 38  1  0
 16 39  1  0
 16 40  1  0
 20 41  1  0
 22 42  1  0
 23 43  1  0
M  END
>  <Energy>  (515) 
497.2263582901798

>  <compound_id>  (515) 
15940

>  <target_id>  (515) 
1

>  <reference_id>  (515) 
56

>  <inspiration_ids>  (515) 
[56, 99]

>  <energy_score>  (515) 
358.34948318847944

>  <distance_score>  (515) 
13.987439114477409

>  <path>  (515) 
/opt/xchem-fragalysis-2/maxwin/BulkDock/SCRATCH/511014/C15940-P56/C15940-P56.minimised.mol

>  <scratch_subdir>  (515) 
/opt/xchem-fragalysis-2/maxwin/BulkDock/SCRATCH/511014/C15940-P56

>  <fragmenstein_runtime>  (515) 
13.025596618652344

>  <fragmenstein_outcome>  (515) 
too moved

>  <fragmenstein_mode>  (515) 
expansion

>  <fragmenstein_error>  (515) 


$$$$
C15940-P99
     RDKit          3D

 43 44  0  0  0  0  0  0  0  0999 V2000
   -6.5797   -0.0021   11.5224 C   0  0  0  0  0  0  0  0  0  0  0  0
   -5.1284   -0.3744   12.0308 C   0  0  0  0  0  0  0  0  0  0  0  0
   -4.0738    0.2766   11.2331 N   0  0  0  0  0  0  0  0  0  0  0  0
   -2.9112   -0.1423   12.8674 C   0  0  0  0  0  0  0  0  0  0  0  0
   -1.4253    0.8206   13.4797 C   0  0  0  0  0  0  0  0  0  0  0  0
   -0.3434   -0.3340   13.5680 C   0  0  0  0  0  0  0  0  0  0  0  0
   -1.0989    1.4968   14.7792 N   0  0  0  0  0  0  0  0  0  0  0  0
   -1.2452    2.8823   15.2002 C   0  0  0  0  0  0  0  0  0  0  0  0
   -1.7409    3.8197   14.6426 O   0  0  0  0  0  0  0  0  0  0  0  0
   -0.5003    3.0833   16.5916 C   0  0  0  0  0  0  0  0  0  0  0  0
    0.5010    2.1746   16.7626 N   0  0  0  0  0  0  0  0  0  0  0  0
    1.3356    2.3394   17.8171 C   0  0  0  0  0  0  0  0  0  0  0  0
    1.2324    3.3387   18.7686 C   0  0  0  0  0  0  0  0  0  0  0  0
    0.1632    4.2089   18.6473 C   0  0  0  0  0  0  0  0  0  0  0  0
   -0.7189    4.1144   17.5390 C   0  0  0  0  0  0  0  0  0  0  0  0
   -1.9308    4.8325   17.6436 N   0  0  0  0  0  0  0  0  0  0  0  0
   -4.0670   -0.4312    9.5414 C   0  0  0  0  0  0  0  0  0  0  0  0
   -3.4247   -1.3832    9.0710 O   0  0  0  0  0  0  0  0  0  0  0  0
   -5.0473    0.0906    8.4985 C   0  0  0  0  0  0  0  0  0  0  0  0
   -4.9284   -0.4034    7.1414 C   0  0  0  0  0  0  0  0  0  0  0  0
   -5.8971   -0.0181    6.3103 N   0  0  0  0  0  0  0  0  0  0  0  0
   -6.6960    0.6891    7.1051 N   0  0  0  0  0  0  0  0  0  0  0  0
   -6.2146    0.8212    8.3811 C   0  0  0  0  0  0  0  0  0  0  0  0
   -6.7815   -0.0586   10.4629 H   0  0  0  0  0  0  0  0  0  0  0  0
   -6.8730    0.9615   11.9295 H   0  0  0  0  0  0  0  0  0  0  0  0
   -7.2723   -0.6976   11.8993 H   0  0  0  0  0  0  0  0  0  0  0  0
   -5.5525   -0.5868   13.0392 H   0  0  0  0  0  0  0  0  0  0  0  0
   -4.6645   -1.0984   11.5742 H   0  0  0  0  0  0  0  0  0  0  0  0
   -2.1931   -0.9299   12.5484 H   0  0  0  0  0  0  0  0  0  0  0  0
   -3.2500   -0.1498   13.9509 H   0  0  0  0  0  0  0  0  0  0  0  0
   -1.1630    1.6190   12.7999 H   0  0  0  0  0  0  0  0  0  0  0  0
   -0.2434   -0.9252   12.6521 H   0  0  0  0  0  0  0  0  0  0  0  0
   -0.6102   -1.0315   14.3723 H   0  0  0  0  0  0  0  0  0  0  0  0
    0.6511    0.0664   13.8045 H   0  0  0  0  0  0  0  0  0  0  0  0
   -0.5463    0.9901   15.4807 H   0  0  0  0  0  0  0  0  0  0  0  0
    2.1135    1.5917   17.8564 H   0  0  0  0  0  0  0  0  0  0  0  0
    1.9186    3.3826   19.6045 H   0  0  0  0  0  0  0  0  0  0  0  0
   -0.0117    4.9454   19.4263 H   0  0  0  0  0  0  0  0  0  0  0  0
   -1.8246    5.7273   18.1136 H   0  0  0  0  0  0  0  0  0  0  0  0
   -2.3625    4.9559   16.7233 H   0  0  0  0  0  0  0  0  0  0  0  0
   -4.1516   -1.0550    6.7564 H   0  0  0  0  0  0  0  0  0  0  0  0
   -7.5582    1.0618    6.7202 H   0  0  0  0  0  0  0  0  0  0  0  0
   -6.8342    1.3733    9.0620 H   0  0  0  0  0  0  0  0  0  0  0  0
  1  2  1  0
  2  3  1  0
  3  4  1  0
  4  5  1  0
  5  6  1  0
  5  7  1  0
  7  8  1  0
  8  9  2  0
  8 10  1  0
 10 11  2  0
 11 12  1  0
 12 13  2  0
 13 14  1  0
 14 15  2  0
 15 16  1  0
  3 17  1  0
 17 18  2  0
 17 19  1  0
 19 20  1  0
 20 21  2  0
 21 22  1  0
 22 23  1  0
 15 10  1  0
 23 19  2  0
  1 24  1  0
  1 25  1  0
  1 26  1  0
  2 27  1  0
  2 28  1  0
  4 29  1  0
  4 30  1  0
  5 31  1  0
  6 32  1  0
  6 33  1  0
  6 34  1  0
  7 35  1  0
 12 36  1  0
 13 37  1  0
 14 38  1  0
 16 39  1  0
 16 40  1  0
 20 41  1  0
 22 42  1  0
 23 43  1  0
M  END
>  <Energy>  (516) 
452.71580639130428

>  <compound_id>  (516) 
15940

>  <target_id>  (516) 
1

>  <reference_id>  (516) 
99

>  <inspiration_ids>  (516) 
[56, 99]

>  <energy_score>  (516) 
313.83893128960074

>  <distance_score>  (516) 
14.894293897555618

>  <path>  (516) 
/opt/xchem-fragalysis-2/maxwin/BulkDock/SCRATCH/511014/C15940-P99/C15940-P99.minimised.mol

>  <scratch_subdir>  (516) 
/opt/xchem-fragalysis-2/maxwin/BulkDock/SCRATCH/511014/C15940-P99

>  <fragmenstein_runtime>  (516) 
14.785623788833618

>  <fragmenstein_outcome>  (516) 
too moved

>  <fragmenstein_mode>  (516) 
expansion

>  <fragmenstein_error>  (516) 


$$$$
C15943-P56
     RDKit          3D

 48 49  0  0  0  0  0  0  0  0999 V2000
   -1.9081   -3.1425   15.6981 C   0  0  0  0  0  0  0  0  0  0  0  0
   -1.3062   -2.8810   16.8492 N   0  0  0  0  0  0  0  0  0  0  0  0
   -0.2153   -1.9083   15.4129 C   0  0  0  0  0  0  0  0  0  0  0  0
   -0.7512   -1.1230   13.5253 C   0  0  0  0  0  0  0  0  0  0  0  0
   -0.3774    0.2452   13.8502 O   0  0  0  0  0  0  0  0  0  0  0  0
   -1.2918   -0.8733   11.5259 C   0  0  0  0  0  0  0  0  0  0  0  0
   -2.3960   -0.0446    9.8483 N   0  0  0  0  0  0  0  0  0  0  0  0
   -1.7804   -1.0697    9.1447 C   0  0  0  0  0  0  0  0  0  0  0  0
   -3.9445   -0.0560    9.5176 C   0  0  0  0  0  0  0  0  0  0  0  0
   -4.7357   -0.6266   10.1251 O   0  0  0  0  0  0  0  0  0  0  0  0
   -4.5873    0.5369    8.3088 C   0  0  0  0  0  0  0  0  0  0  0  0
   -5.5918    1.5124    7.8879 C   0  0  0  0  0  0  0  0  0  0  0  0
   -6.2510    1.2106    6.7652 N   0  0  0  0  0  0  0  0  0  0  0  0
   -6.0075   -0.0834    6.6302 N   0  0  0  0  0  0  0  0  0  0  0  0
   -5.0115   -0.5055    7.4535 C   0  0  0  0  0  0  0  0  0  0  0  0
   -2.5229   -2.2437   18.0585 C   0  0  0  0  0  0  0  0  0  0  0  0
   -2.7854   -1.0916   18.2203 O   0  0  0  0  0  0  0  0  0  0  0  0
   -3.7858   -3.5597   19.1545 C   0  0  0  0  0  0  0  0  0  0  0  0
   -4.4190   -4.7367   20.7713 C   0  0  0  0  0  0  0  0  0  0  0  0
   -4.2067   -6.2174   22.1036 C   0  0  0  0  0  0  0  0  0  0  0  0
   -3.0842   -5.9846   23.4944 C   0  0  0  0  0  0  0  0  0  0  0  0
   -1.7992   -6.8904   23.9948 C   0  0  0  0  0  0  0  0  0  0  0  0
   -1.6562   -8.0477   23.0890 C   0  0  0  0  0  0  0  0  0  0  0  0
   -2.7195   -8.3513   22.1484 C   0  0  0  0  0  0  0  0  0  0  0  0
   -3.9026   -7.5505   21.7292 N   0  0  0  0  0  0  0  0  0  0  0  0
   -1.5527   -2.8864   14.6786 H   0  0  0  0  0  0  0  0  0  0  0  0
   -2.0062   -4.2138   15.3883 H   0  0  0  0  0  0  0  0  0  0  0  0
   -2.8400   -3.2465   16.1758 H   0  0  0  0  0  0  0  0  0  0  0  0
    0.6349   -2.5189   15.1122 H   0  0  0  0  0  0  0  0  0  0  0  0
    0.2156   -1.0670   15.9888 H   0  0  0  0  0  0  0  0  0  0  0  0
   -1.8022   -1.4162   13.5372 H   0  0  0  0  0  0  0  0  0  0  0  0
    0.4516    0.2454   14.3608 H   0  0  0  0  0  0  0  0  0  0  0  0
   -1.5055    0.0482   12.0844 H   0  0  0  0  0  0  0  0  0  0  0  0
   -0.2130   -0.9514   11.1127 H   0  0  0  0  0  0  0  0  0  0  0  0
   -2.6368   -1.7849    9.0417 H   0  0  0  0  0  0  0  0  0  0  0  0
   -1.6610   -1.5229    8.1324 H   0  0  0  0  0  0  0  0  0  0  0  0
   -1.9426   -0.3179    8.3401 H   0  0  0  0  0  0  0  0  0  0  0  0
   -5.8929    2.4721    8.2854 H   0  0  0  0  0  0  0  0  0  0  0  0
   -6.5450   -0.6137    5.9487 H   0  0  0  0  0  0  0  0  0  0  0  0
   -4.7555   -1.5561    7.4910 H   0  0  0  0  0  0  0  0  0  0  0  0
   -4.1884   -2.6271   19.4457 H   0  0  0  0  0  0  0  0  0  0  0  0
   -4.3434   -4.1906   18.4085 H   0  0  0  0  0  0  0  0  0  0  0  0
   -5.4710   -4.8985   20.4873 H   0  0  0  0  0  0  0  0  0  0  0  0
   -4.5324   -3.9715   21.5429 H   0  0  0  0  0  0  0  0  0  0  0  0
   -2.8736   -4.9566   23.8157 H   0  0  0  0  0  0  0  0  0  0  0  0
   -1.0593   -6.5380   24.6972 H   0  0  0  0  0  0  0  0  0  0  0  0
   -0.6901   -8.5268   22.9384 H   0  0  0  0  0  0  0  0  0  0  0  0
   -2.5973   -9.2288   21.5102 H   0  0  0  0  0  0  0  0  0  0  0  0
  1  2  1  0
  2  3  1  0
  3  4  1  0
  4  5  1  0
  4  6  1  0
  6  7  1  0
  7  8  1  0
  7  9  1  0
  9 10  2  0
  9 11  1  0
 11 12  1  0
 12 13  2  0
 13 14  1  0
 14 15  1  0
  2 16  1  0
 16 17  2  0
 16 18  1  0
 18 19  1  0
 19 20  1  0
 20 21  2  0
 21 22  1  0
 22 23  2  0
 23 24  1  0
 24 25  2  0
 15 11  2  0
 25 20  1  0
  1 26  1  0
  1 27  1  0
  1 28  1  0
  3 29  1  0
  3 30  1  0
  4 31  1  0
  5 32  1  0
  6 33  1  0
  6 34  1  0
  8 35  1  0
  8 36  1  0
  8 37  1  0
 12 38  1  0
 14 39  1  0
 15 40  1  0
 18 41  1  0
 18 42  1  0
 19 43  1  0
 19 44  1  0
 21 45  1  0
 22 46  1  0
 23 47  1  0
 24 48  1  0
M  END
>  <Energy>  (517) 
1366.3421792244706

>  <compound_id>  (517) 
15943

>  <target_id>  (517) 
1

>  <reference_id>  (517) 
56

>  <inspiration_ids>  (517) 
[56, 99]

>  <energy_score>  (517) 
1294.660764690616

>  <distance_score>  (517) 
7.50217755199503

>  <path>  (517) 
/opt/xchem-fragalysis-2/maxwin/BulkDock/SCRATCH/511014/C15943-P56/C15943-P56.minimised.mol

>  <scratch_subdir>  (517) 
/opt/xchem-fragalysis-2/maxwin/BulkDock/SCRATCH/511014/C15943-P56

>  <fragmenstein_runtime>  (517) 
30.36870241165161

>  <fragmenstein_outcome>  (517) 
too moved

>  <fragmenstein_mode>  (517) 
expansion

>  <fragmenstein_error>  (517) 


$$$$
C15943-P99
     RDKit          3D

 48 49  0  0  0  0  0  0  0  0999 V2000
   -5.8148   -5.7229   17.1457 C   0  0  0  0  0  0  0  0  0  0  0  0
   -4.4726   -5.1280   17.3350 N   0  0  0  0  0  0  0  0  0  0  0  0
   -4.9168   -4.3025   15.5476 C   0  0  0  0  0  0  0  0  0  0  0  0
   -5.9402   -2.9110   14.2519 C   0  0  0  0  0  0  0  0  0  0  0  0
   -7.4432   -3.4596   14.0723 O   0  0  0  0  0  0  0  0  0  0  0  0
   -6.5275   -0.9098   13.8758 C   0  0  0  0  0  0  0  0  0  0  0  0
   -6.7741    0.3197   12.2894 N   0  0  0  0  0  0  0  0  0  0  0  0
   -5.8067   -0.3602   11.8321 C   0  0  0  0  0  0  0  0  0  0  0  0
   -8.0728    0.3902   11.0801 C   0  0  0  0  0  0  0  0  0  0  0  0
   -9.0157   -0.3735   10.9536 O   0  0  0  0  0  0  0  0  0  0  0  0
   -8.0700    1.3489    9.9893 C   0  0  0  0  0  0  0  0  0  0  0  0
   -9.1078    2.2380    9.6091 C   0  0  0  0  0  0  0  0  0  0  0  0
   -9.0311    2.6217    8.3301 N   0  0  0  0  0  0  0  0  0  0  0  0
   -8.0154    1.8957    7.8461 N   0  0  0  0  0  0  0  0  0  0  0  0
   -7.4227    1.1012    8.7792 C   0  0  0  0  0  0  0  0  0  0  0  0
   -4.2557   -4.2490   18.9146 C   0  0  0  0  0  0  0  0  0  0  0  0
   -4.4138   -3.1102   19.1801 O   0  0  0  0  0  0  0  0  0  0  0  0
   -3.9704   -5.0325   20.2284 C   0  0  0  0  0  0  0  0  0  0  0  0
   -3.6459   -5.0131   21.8873 C   0  0  0  0  0  0  0  0  0  0  0  0
   -2.6603   -5.6936   23.5258 C   0  0  0  0  0  0  0  0  0  0  0  0
   -1.8545   -5.0721   24.3416 C   0  0  0  0  0  0  0  0  0  0  0  0
   -1.7006   -5.5498   25.9665 C   0  0  0  0  0  0  0  0  0  0  0  0
   -2.2058   -6.6967   26.5397 C   0  0  0  0  0  0  0  0  0  0  0  0
   -1.9811   -7.2580   25.4250 C   0  0  0  0  0  0  0  0  0  0  0  0
   -1.9586   -6.7679   23.8698 N   0  0  0  0  0  0  0  0  0  0  0  0
   -5.3101   -6.7279   17.2238 H   0  0  0  0  0  0  0  0  0  0  0  0
   -6.4475   -6.1218   16.2960 H   0  0  0  0  0  0  0  0  0  0  0  0
   -6.3571   -6.4279   17.8482 H   0  0  0  0  0  0  0  0  0  0  0  0
   -5.6156   -4.9725   15.1776 H   0  0  0  0  0  0  0  0  0  0  0  0
   -4.9517   -3.5452   16.2614 H   0  0  0  0  0  0  0  0  0  0  0  0
   -5.5489   -3.5103   13.4763 H   0  0  0  0  0  0  0  0  0  0  0  0
   -7.4170   -4.4267   13.9725 H   0  0  0  0  0  0  0  0  0  0  0  0
   -6.0505   -0.2528   14.5813 H   0  0  0  0  0  0  0  0  0  0  0  0
   -7.5706   -0.9659   14.2273 H   0  0  0  0  0  0  0  0  0  0  0  0
   -5.9919   -0.1909   10.7382 H   0  0  0  0  0  0  0  0  0  0  0  0
   -6.5624   -1.0355   11.7290 H   0  0  0  0  0  0  0  0  0  0  0  0
   -4.7333   -0.2625   11.7169 H   0  0  0  0  0  0  0  0  0  0  0  0
   -9.9415    2.5781   10.2095 H   0  0  0  0  0  0  0  0  0  0  0  0
   -7.8135    1.9613    6.8544 H   0  0  0  0  0  0  0  0  0  0  0  0
   -6.6754    0.3746    8.4975 H   0  0  0  0  0  0  0  0  0  0  0  0
   -4.6963   -4.2806   20.6432 H   0  0  0  0  0  0  0  0  0  0  0  0
   -5.0064   -5.4508   20.3120 H   0  0  0  0  0  0  0  0  0  0  0  0
   -4.3364   -5.9084   21.9375 H   0  0  0  0  0  0  0  0  0  0  0  0
   -3.9711   -3.9964   22.2189 H   0  0  0  0  0  0  0  0  0  0  0  0
   -0.8730   -4.7881   23.9348 H   0  0  0  0  0  0  0  0  0  0  0  0
   -1.2462   -4.8878   26.7668 H   0  0  0  0  0  0  0  0  0  0  0  0
   -2.3034   -7.1166   27.5223 H   0  0  0  0  0  0  0  0  0  0  0  0
   -2.3509   -8.2676   25.6880 H   0  0  0  0  0  0  0  0  0  0  0  0
  1  2  1  0
  2  3  1  0
  3  4  1  0
  4  5  1  0
  4  6  1  0
  6  7  1  0
  7  8  1  0
  7  9  1  0
  9 10  2  0
  9 11  1  0
 11 12  1  0
 12 13  2  0
 13 14  1  0
 14 15  1  0
  2 16  1  0
 16 17  2  0
 16 18  1  0
 18 19  1  0
 19 20  1  0
 20 21  2  0
 21 22  1  0
 22 23  2  0
 23 24  1  0
 24 25  2  0
 15 11  2  0
 25 20  1  0
  1 26  1  0
  1 27  1  0
  1 28  1  0
  3 29  1  0
  3 30  1  0
  4 31  1  0
  5 32  1  0
  6 33  1  0
  6 34  1  0
  8 35  1  0
  8 36  1  0
  8 37  1  0
 12 38  1  0
 14 39  1  0
 15 40  1  0
 18 41  1  0
 18 42  1  0
 19 43  1  0
 19 44  1  0
 21 45  1  0
 22 46  1  0
 23 47  1  0
 24 48  1  0
M  END
>  <Energy>  (518) 
1278.4009628307556

>  <compound_id>  (518) 
15943

>  <target_id>  (518) 
1

>  <reference_id>  (518) 
99

>  <inspiration_ids>  (518) 
[56, 99]

>  <energy_score>  (518) 
1206.7195482968643

>  <distance_score>  (518) 
6.876224690027495

>  <path>  (518) 
/opt/xchem-fragalysis-2/maxwin/BulkDock/SCRATCH/511014/C15943-P99/C15943-P99.minimised.mol

>  <scratch_subdir>  (518) 
/opt/xchem-fragalysis-2/maxwin/BulkDock/SCRATCH/511014/C15943-P99

>  <fragmenstein_runtime>  (518) 
39.32288718223572

>  <fragmenstein_outcome>  (518) 
too moved

>  <fragmenstein_mode>  (518) 
expansion

>  <fragmenstein_error>  (518) 


$$$$
C15944-P56
     RDKit          3D

 48 50  0  0  0  0  0  0  0  0999 V2000
   -4.0428   -4.8494   15.7792 C   0  0  0  0  0  0  0  0  0  0  0  0
   -3.7965   -5.0241   14.3509 N   0  0  0  0  0  0  0  0  0  0  0  0
   -2.4265   -4.6580   14.0286 C   0  0  0  0  0  0  0  0  0  0  0  0
   -1.4245   -5.3315   13.9925 O   0  0  0  0  0  0  0  0  0  0  0  0
   -2.0793   -3.1953   13.7888 C   0  0  0  0  0  0  0  0  0  0  0  0
   -1.6036   -2.5500   12.8348 C   0  0  0  0  0  0  0  0  0  0  0  0
   -1.9777   -0.8287   12.2598 C   0  0  0  0  0  0  0  0  0  0  0  0
   -3.7648   -0.3671   11.9286 C   0  0  0  0  0  0  0  0  0  0  0  0
   -4.1888   -0.3083   10.0766 C   0  0  0  0  0  0  0  0  0  0  0  0
   -5.4912   -0.4076    9.3012 C   0  0  0  0  0  0  0  0  0  0  0  0
   -5.3678   -0.5236    7.9860 N   0  0  0  0  0  0  0  0  0  0  0  0
   -4.0552   -0.5824    7.8456 N   0  0  0  0  0  0  0  0  0  0  0  0
   -3.3352   -0.3350    8.9716 C   0  0  0  0  0  0  0  0  0  0  0  0
   -3.0061   -0.2527   12.9097 C   0  0  0  0  0  0  0  0  0  0  0  0
   -2.5270   -1.9753   13.6579 N   0  0  0  0  0  0  0  0  0  0  0  0
   -4.4542   -6.4611   14.6486 C   0  0  0  0  0  0  0  0  0  0  0  0
   -3.4559   -7.6720   15.0292 C   0  0  0  0  0  0  0  0  0  0  0  0
   -3.6333   -8.3927   16.3152 N   0  0  0  0  0  0  0  0  0  0  0  0
   -2.6784   -9.1086   17.1454 C   0  0  0  0  0  0  0  0  0  0  0  0
   -1.4899   -9.2305   17.0419 O   0  0  0  0  0  0  0  0  0  0  0  0
   -3.3667   -9.8662   18.3172 C   0  0  0  0  0  0  0  0  0  0  0  0
   -2.5373   -9.8740   19.6303 C   0  0  0  0  0  0  0  0  0  0  0  0
   -3.2368   -9.3212   20.6678 F   0  0  0  0  0  0  0  0  0  0  0  0
   -5.7924   -6.6043   15.3908 C   0  0  0  0  0  0  0  0  0  0  0  0
   -6.8554   -7.5180   14.8585 C   0  0  0  0  0  0  0  0  0  0  0  0
   -7.0529   -6.0188   14.8443 C   0  0  0  0  0  0  0  0  0  0  0  0
   -3.8368   -5.6268   16.5142 H   0  0  0  0  0  0  0  0  0  0  0  0
   -5.0427   -4.4189   15.9277 H   0  0  0  0  0  0  0  0  0  0  0  0
   -3.3895   -4.0276   16.0279 H   0  0  0  0  0  0  0  0  0  0  0  0
   -1.2001   -3.3893   12.3412 H   0  0  0  0  0  0  0  0  0  0  0  0
   -1.1266   -0.7917   11.6212 H   0  0  0  0  0  0  0  0  0  0  0  0
   -6.5052   -0.3935    9.6949 H   0  0  0  0  0  0  0  0  0  0  0  0
   -3.6783   -0.6005    6.9111 H   0  0  0  0  0  0  0  0  0  0  0  0
   -2.2681   -0.3360    8.8926 H   0  0  0  0  0  0  0  0  0  0  0  0
   -3.3860    0.1139   13.8773 H   0  0  0  0  0  0  0  0  0  0  0  0
   -4.6903   -6.7008   13.5988 H   0  0  0  0  0  0  0  0  0  0  0  0
   -2.4069   -7.3860   14.9393 H   0  0  0  0  0  0  0  0  0  0  0  0
   -3.6119   -8.4558   14.2766 H   0  0  0  0  0  0  0  0  0  0  0  0
   -4.5698   -8.5751   16.6557 H   0  0  0  0  0  0  0  0  0  0  0  0
   -3.4600  -10.9019   17.9648 H   0  0  0  0  0  0  0  0  0  0  0  0
   -4.3834   -9.5149   18.4995 H   0  0  0  0  0  0  0  0  0  0  0  0
   -2.3096  -10.9045   19.9191 H   0  0  0  0  0  0  0  0  0  0  0  0
   -1.5971   -9.3250   19.5407 H   0  0  0  0  0  0  0  0  0  0  0  0
   -5.6923   -6.6069   16.4719 H   0  0  0  0  0  0  0  0  0  0  0  0
   -6.6697   -8.0305   13.9207 H   0  0  0  0  0  0  0  0  0  0  0  0
   -7.4428   -8.0937   15.5654 H   0  0  0  0  0  0  0  0  0  0  0  0
   -7.7590   -5.5864   15.5444 H   0  0  0  0  0  0  0  0  0  0  0  0
   -6.9858   -5.4862   13.9061 H   0  0  0  0  0  0  0  0  0  0  0  0
  1  2  1  0
  2  3  1  0
  3  4  2  0
  3  5  1  0
  5  6  2  0
  6  7  1  0
  7  8  2  0
  8  9  1  0
  9 10  1  0
 10 11  2  0
 11 12  1  0
 12 13  1  0
  8 14  1  0
 14 15  2  0
  2 16  1  0
 16 17  1  0
 17 18  1  0
 18 19  1  0
 19 20  2  0
 19 21  1  0
 21 22  1  0
 22 23  1  0
 16 24  1  0
 24 25  1  0
 25 26  1  0
 15  5  1  0
 26 24  1  0
 13  9  2  0
  1 27  1  0
  1 28  1  0
  1 29  1  0
  6 30  1  0
  7 31  1  0
 10 32  1  0
 12 33  1  0
 13 34  1  0
 14 35  1  0
 16 36  1  0
 17 37  1  0
 17 38  1  0
 18 39  1  0
 21 40  1  0
 21 41  1  0
 22 42  1  0
 22 43  1  0
 24 44  1  0
 25 45  1  0
 25 46  1  0
 26 47  1  0
 26 48  1  0
M  END
>  <Energy>  (519) 
896.30345655720146

>  <compound_id>  (519) 
15944

>  <target_id>  (519) 
1

>  <reference_id>  (519) 
56

>  <inspiration_ids>  (519) 
[56, 99]

>  <energy_score>  (519) 
771.9586286238167

>  <distance_score>  (519) 
12.401429112478471

>  <path>  (519) 
/opt/xchem-fragalysis-2/maxwin/BulkDock/SCRATCH/511014/C15944-P56/C15944-P56.minimised.mol

>  <scratch_subdir>  (519) 
/opt/xchem-fragalysis-2/maxwin/BulkDock/SCRATCH/511014/C15944-P56

>  <fragmenstein_runtime>  (519) 
56.65635704994202

>  <fragmenstein_outcome>  (519) 
too moved

>  <fragmenstein_mode>  (519) 
expansion

>  <fragmenstein_error>  (519) 


$$$$
C15944-P99
     RDKit          3D

 48 50  0  0  0  0  0  0  0  0999 V2000
  -10.6658   -0.9193   18.1673 C   0  0  0  0  0  0  0  0  0  0  0  0
  -12.0593   -1.4373   18.1657 N   0  0  0  0  0  0  0  0  0  0  0  0
  -12.3807   -1.9920   16.8707 C   0  0  0  0  0  0  0  0  0  0  0  0
  -12.2628   -3.1195   16.4496 O   0  0  0  0  0  0  0  0  0  0  0  0
  -12.9469   -1.0598   15.7775 C   0  0  0  0  0  0  0  0  0  0  0  0
  -13.8102   -1.6715   14.8599 C   0  0  0  0  0  0  0  0  0  0  0  0
  -13.8523   -1.2228   13.5309 C   0  0  0  0  0  0  0  0  0  0  0  0
  -13.0439   -0.1665   13.1254 C   0  0  0  0  0  0  0  0  0  0  0  0
  -12.7835    0.0382   11.7061 C   0  0  0  0  0  0  0  0  0  0  0  0
  -13.5309    0.6544   10.6822 C   0  0  0  0  0  0  0  0  0  0  0  0
  -13.0356    0.4270    9.4592 N   0  0  0  0  0  0  0  0  0  0  0  0
  -11.9642   -0.3527    9.6845 N   0  0  0  0  0  0  0  0  0  0  0  0
  -11.7852   -0.6196   11.0115 C   0  0  0  0  0  0  0  0  0  0  0  0
  -12.3891    0.5205   14.1471 C   0  0  0  0  0  0  0  0  0  0  0  0
  -12.2978    0.0952   15.4597 N   0  0  0  0  0  0  0  0  0  0  0  0
  -11.5600   -2.1415   19.4938 C   0  0  0  0  0  0  0  0  0  0  0  0
  -10.8729   -1.4852   20.7856 C   0  0  0  0  0  0  0  0  0  0  0  0
  -10.3155   -2.4814   21.7330 N   0  0  0  0  0  0  0  0  0  0  0  0
   -9.7581   -2.3209   23.0621 C   0  0  0  0  0  0  0  0  0  0  0  0
   -9.6786   -1.3535   23.7643 O   0  0  0  0  0  0  0  0  0  0  0  0
   -9.1884   -3.6706   23.5635 C   0  0  0  0  0  0  0  0  0  0  0  0
   -8.5495   -3.5936   24.9623 C   0  0  0  0  0  0  0  0  0  0  0  0
   -7.9671   -4.7847   25.2875 F   0  0  0  0  0  0  0  0  0  0  0  0
  -12.8762   -2.7597   20.0236 C   0  0  0  0  0  0  0  0  0  0  0  0
  -12.9058   -4.0940   20.7373 C   0  0  0  0  0  0  0  0  0  0  0  0
  -13.4977   -3.9714   19.3651 C   0  0  0  0  0  0  0  0  0  0  0  0
   -9.8535   -1.6611   18.1504 H   0  0  0  0  0  0  0  0  0  0  0  0
  -10.5473   -0.0821   18.8632 H   0  0  0  0  0  0  0  0  0  0  0  0
  -10.5313   -0.3935   17.2152 H   0  0  0  0  0  0  0  0  0  0  0  0
  -14.3161   -2.5966   15.1250 H   0  0  0  0  0  0  0  0  0  0  0  0
  -14.4382   -1.7816   12.8068 H   0  0  0  0  0  0  0  0  0  0  0  0
  -14.4376    1.2389   10.7723 H   0  0  0  0  0  0  0  0  0  0  0  0
  -11.4298   -0.7082    8.8952 H   0  0  0  0  0  0  0  0  0  0  0  0
  -11.0043   -1.3007   11.3180 H   0  0  0  0  0  0  0  0  0  0  0  0
  -11.8114    1.4147   13.9321 H   0  0  0  0  0  0  0  0  0  0  0  0
  -10.9557   -3.0116   19.1801 H   0  0  0  0  0  0  0  0  0  0  0  0
  -10.0072   -0.8661   20.5459 H   0  0  0  0  0  0  0  0  0  0  0  0
  -11.5798   -0.8563   21.3376 H   0  0  0  0  0  0  0  0  0  0  0  0
  -10.1353   -3.4259   21.4101 H   0  0  0  0  0  0  0  0  0  0  0  0
   -8.4334   -4.0179   22.8490 H   0  0  0  0  0  0  0  0  0  0  0  0
   -9.9957   -4.4114   23.5779 H   0  0  0  0  0  0  0  0  0  0  0  0
   -7.7751   -2.8229   25.0045 H   0  0  0  0  0  0  0  0  0  0  0  0
   -9.3025   -3.3670   25.7230 H   0  0  0  0  0  0  0  0  0  0  0  0
  -13.5617   -1.9916   20.3706 H   0  0  0  0  0  0  0  0  0  0  0  0
  -12.0017   -4.6832   20.8250 H   0  0  0  0  0  0  0  0  0  0  0  0
  -13.5867   -4.2027   21.5745 H   0  0  0  0  0  0  0  0  0  0  0  0
  -12.9741   -4.4558   18.5483 H   0  0  0  0  0  0  0  0  0  0  0  0
  -14.5770   -3.9925   19.2665 H   0  0  0  0  0  0  0  0  0  0  0  0
  1  2  1  0
  2  3  1  0
  3  4  2  0
  3  5  1  0
  5  6  2  0
  6  7  1  0
  7  8  2  0
  8  9  1  0
  9 10  1  0
 10 11  2  0
 11 12  1  0
 12 13  1  0
  8 14  1  0
 14 15  2  0
  2 16  1  0
 16 17  1  0
 17 18  1  0
 18 19  1  0
 19 20  2  0
 19 21  1  0
 21 22  1  0
 22 23  1  0
 16 24  1  0
 24 25  1  0
 25 26  1  0
 15  5  1  0
 26 24  1  0
 13  9  2  0
  1 27  1  0
  1 28  1  0
  1 29  1  0
  6 30  1  0
  7 31  1  0
 10 32  1  0
 12 33  1  0
 13 34  1  0
 14 35  1  0
 16 36  1  0
 17 37  1  0
 17 38  1  0
 18 39  1  0
 21 40  1  0
 21 41  1  0
 22 42  1  0
 22 43  1  0
 24 44  1  0
 25 45  1  0
 25 46  1  0
 26 47  1  0
 26 48  1  0
M  END
>  <Energy>  (520) 
187.33730300988066

>  <compound_id>  (520) 
15944

>  <target_id>  (520) 
1

>  <reference_id>  (520) 
99

>  <inspiration_ids>  (520) 
[56, 99]

>  <energy_score>  (520) 
62.99247507650034

>  <distance_score>  (520) 
12.469258813672313

>  <path>  (520) 
/opt/xchem-fragalysis-2/maxwin/BulkDock/SCRATCH/511014/C15944-P99/C15944-P99.minimised.mol

>  <scratch_subdir>  (520) 
/opt/xchem-fragalysis-2/maxwin/BulkDock/SCRATCH/511014/C15944-P99

>  <fragmenstein_runtime>  (520) 
45.535855293273926

>  <fragmenstein_outcome>  (520) 
too moved

>  <fragmenstein_mode>  (520) 
expansion

>  <fragmenstein_error>  (520) 


$$$$
C15946-P56
     RDKit          3D

 45 47  0  0  0  0  0  0  0  0999 V2000
   -6.9720   -6.3369   16.8841 C   0  0  0  0  0  0  0  0  0  0  0  0
   -5.2222   -5.5073   16.8244 C   0  0  0  0  0  0  0  0  0  0  0  0
   -5.6355   -4.9371   14.8156 C   0  0  0  0  0  0  0  0  0  0  0  0
   -6.8103   -5.5082   13.2984 C   0  0  0  0  0  0  0  0  0  0  0  0
   -6.3896   -5.3827   11.4409 N   0  0  0  0  0  0  0  0  0  0  0  0
   -7.5090   -5.0201    9.8720 C   0  0  0  0  0  0  0  0  0  0  0  0
   -8.7395   -4.9183    9.9975 O   0  0  0  0  0  0  0  0  0  0  0  0
   -7.1065   -4.6359    8.2621 C   0  0  0  0  0  0  0  0  0  0  0  0
   -7.1835   -4.9763    6.8572 C   0  0  0  0  0  0  0  0  0  0  0  0
   -7.0894   -3.9800    5.9654 N   0  0  0  0  0  0  0  0  0  0  0  0
   -7.5435   -2.9713    6.6706 N   0  0  0  0  0  0  0  0  0  0  0  0
   -7.7262   -3.3457    7.9550 C   0  0  0  0  0  0  0  0  0  0  0  0
   -4.9670   -7.2603   17.3093 N   0  0  0  0  0  0  0  0  0  0  0  0
   -3.4575   -8.2407   17.5507 C   0  0  0  0  0  0  0  0  0  0  0  0
   -2.4414   -7.7558   17.4830 O   0  0  0  0  0  0  0  0  0  0  0  0
   -3.2862   -9.6763   17.9741 C   0  0  0  0  0  0  0  0  0  0  0  0
   -3.2917  -10.8265   17.2379 C   0  0  0  0  0  0  0  0  0  0  0  0
   -2.9267  -12.0011   17.9140 C   0  0  0  0  0  0  0  0  0  0  0  0
   -2.5130  -11.9961   19.2581 C   0  0  0  0  0  0  0  0  0  0  0  0
   -2.4251  -10.8007   19.9443 C   0  0  0  0  0  0  0  0  0  0  0  0
   -1.9531  -10.6620   21.3740 C   0  0  0  0  0  0  0  0  0  0  0  0
   -2.4550  -11.5947   22.4513 C   0  0  0  0  0  0  0  0  0  0  0  0
   -1.0154  -11.6493   22.0253 C   0  0  0  0  0  0  0  0  0  0  0  0
   -2.7925   -9.6722   19.2996 N   0  0  0  0  0  0  0  0  0  0  0  0
   -7.7864   -5.8417   16.3465 H   0  0  0  0  0  0  0  0  0  0  0  0
   -7.2564   -6.5349   17.9167 H   0  0  0  0  0  0  0  0  0  0  0  0
   -7.0266   -7.2758   16.3340 H   0  0  0  0  0  0  0  0  0  0  0  0
   -5.0236   -4.7506   17.5861 H   0  0  0  0  0  0  0  0  0  0  0  0
   -5.5877   -3.8900   14.5599 H   0  0  0  0  0  0  0  0  0  0  0  0
   -4.6899   -4.9876   14.3269 H   0  0  0  0  0  0  0  0  0  0  0  0
   -6.9537   -6.5722   13.3656 H   0  0  0  0  0  0  0  0  0  0  0  0
   -7.7778   -5.0067   13.4581 H   0  0  0  0  0  0  0  0  0  0  0  0
   -5.4499   -5.5251   11.1470 H   0  0  0  0  0  0  0  0  0  0  0  0
   -7.2142   -5.9150    6.3629 H   0  0  0  0  0  0  0  0  0  0  0  0
   -7.7943   -2.1056    6.2024 H   0  0  0  0  0  0  0  0  0  0  0  0
   -8.2598   -2.6717    8.6094 H   0  0  0  0  0  0  0  0  0  0  0  0
   -5.7903   -7.8539   17.5020 H   0  0  0  0  0  0  0  0  0  0  0  0
   -3.5418  -10.8297   16.1865 H   0  0  0  0  0  0  0  0  0  0  0  0
   -2.9368  -12.9445   17.3701 H   0  0  0  0  0  0  0  0  0  0  0  0
   -2.2357  -12.9327   19.7296 H   0  0  0  0  0  0  0  0  0  0  0  0
   -1.8126   -9.6269   21.6832 H   0  0  0  0  0  0  0  0  0  0  0  0
   -3.1013  -12.4198   22.1755 H   0  0  0  0  0  0  0  0  0  0  0  0
   -2.6835  -11.1664   23.4207 H   0  0  0  0  0  0  0  0  0  0  0  0
   -0.6755  -12.5133   21.4676 H   0  0  0  0  0  0  0  0  0  0  0  0
   -0.2678  -11.2562   22.7060 H   0  0  0  0  0  0  0  0  0  0  0  0
  1  2  1  0
  2  3  1  0
  3  4  1  0
  4  5  1  0
  5  6  1  0
  6  7  2  0
  6  8  1  0
  8  9  1  0
  9 10  2  0
 10 11  1  0
 11 12  1  0
  2 13  1  0
 13 14  1  0
 14 15  2  0
 14 16  1  0
 16 17  2  0
 17 18  1  0
 18 19  2  0
 19 20  1  0
 20 21  1  0
 21 22  1  0
 22 23  1  0
 20 24  2  0
 12  8  2  0
 24 16  1  0
 23 21  1  0
  1 25  1  0
  1 26  1  0
  1 27  1  0
  2 28  1  0
  3 29  1  0
  3 30  1  0
  4 31  1  0
  4 32  1  0
  5 33  1  0
  9 34  1  0
 11 35  1  0
 12 36  1  0
 13 37  1  0
 17 38  1  0
 18 39  1  0
 19 40  1  0
 21 41  1  0
 22 42  1  0
 22 43  1  0
 23 44  1  0
 23 45  1  0
M  END
>  <Energy>  (521) 
652.25869541223233

>  <compound_id>  (521) 
15946

>  <target_id>  (521) 
1

>  <reference_id>  (521) 
56

>  <inspiration_ids>  (521) 
[56, 99]

>  <energy_score>  (521) 
586.1664336011061

>  <distance_score>  (521) 
10.45359593813399

>  <path>  (521) 
/opt/xchem-fragalysis-2/maxwin/BulkDock/SCRATCH/511014/C15946-P56/C15946-P56.minimised.mol

>  <scratch_subdir>  (521) 
/opt/xchem-fragalysis-2/maxwin/BulkDock/SCRATCH/511014/C15946-P56

>  <fragmenstein_runtime>  (521) 
39.61058449745178

>  <fragmenstein_outcome>  (521) 
too moved

>  <fragmenstein_mode>  (521) 
expansion

>  <fragmenstein_error>  (521) 


$$$$
C15946-P99
     RDKit          3D

 45 47  0  0  0  0  0  0  0  0999 V2000
   -1.7685   -0.8306   12.3490 C   0  0  0  0  0  0  0  0  0  0  0  0
   -0.6278   -1.7285   12.1983 C   0  0  0  0  0  0  0  0  0  0  0  0
   -0.5023   -1.2142   10.7747 C   0  0  0  0  0  0  0  0  0  0  0  0
   -1.9198   -1.2706    9.1604 C   0  0  0  0  0  0  0  0  0  0  0  0
   -2.4504   -1.4045    7.8053 N   0  0  0  0  0  0  0  0  0  0  0  0
   -3.6064   -0.7954    7.1780 C   0  0  0  0  0  0  0  0  0  0  0  0
   -4.3671    0.0340    7.5832 O   0  0  0  0  0  0  0  0  0  0  0  0
   -3.9604   -1.3600    5.8791 C   0  0  0  0  0  0  0  0  0  0  0  0
   -4.6165   -2.6127    5.7393 C   0  0  0  0  0  0  0  0  0  0  0  0
   -5.0923   -2.8286    4.5119 N   0  0  0  0  0  0  0  0  0  0  0  0
   -4.8587   -1.6675    3.8894 N   0  0  0  0  0  0  0  0  0  0  0  0
   -4.1698   -0.7678    4.6527 C   0  0  0  0  0  0  0  0  0  0  0  0
    0.3976   -1.7729   13.3923 N   0  0  0  0  0  0  0  0  0  0  0  0
    1.2400   -0.7408   13.9661 C   0  0  0  0  0  0  0  0  0  0  0  0
    1.4327    0.3926   13.6225 O   0  0  0  0  0  0  0  0  0  0  0  0
    1.9093   -1.1903   15.3152 C   0  0  0  0  0  0  0  0  0  0  0  0
    3.2761   -1.1700   15.2358 C   0  0  0  0  0  0  0  0  0  0  0  0
    3.9410   -1.9201   16.1511 C   0  0  0  0  0  0  0  0  0  0  0  0
    3.2043   -2.6251   17.1033 C   0  0  0  0  0  0  0  0  0  0  0  0
    1.8086   -2.4811   17.4338 C   0  0  0  0  0  0  0  0  0  0  0  0
    0.8485   -3.4639   18.8879 C   0  0  0  0  0  0  0  0  0  0  0  0
    1.2594   -4.6693   20.3465 C   0  0  0  0  0  0  0  0  0  0  0  0
    1.0392   -3.3907   20.8071 C   0  0  0  0  0  0  0  0  0  0  0  0
    1.1684   -1.7086   16.4347 N   0  0  0  0  0  0  0  0  0  0  0  0
   -1.2262    0.0891   12.6451 H   0  0  0  0  0  0  0  0  0  0  0  0
   -2.8291   -0.5576   12.5483 H   0  0  0  0  0  0  0  0  0  0  0  0
   -2.3265   -1.6492   12.8006 H   0  0  0  0  0  0  0  0  0  0  0  0
   -1.1231   -2.6766   12.4422 H   0  0  0  0  0  0  0  0  0  0  0  0
   -0.5842   -0.3373   11.2132 H   0  0  0  0  0  0  0  0  0  0  0  0
    0.4834   -1.4605   10.3636 H   0  0  0  0  0  0  0  0  0  0  0  0
   -2.5058   -2.1742    9.2590 H   0  0  0  0  0  0  0  0  0  0  0  0
   -2.6204   -0.3993    9.3049 H   0  0  0  0  0  0  0  0  0  0  0  0
   -2.0923   -2.1285    7.2018 H   0  0  0  0  0  0  0  0  0  0  0  0
   -4.7918   -3.3493    6.5124 H   0  0  0  0  0  0  0  0  0  0  0  0
   -5.2189   -1.5439    2.9491 H   0  0  0  0  0  0  0  0  0  0  0  0
   -3.9811    0.2250    4.2775 H   0  0  0  0  0  0  0  0  0  0  0  0
    0.4158   -2.5897   13.9970 H   0  0  0  0  0  0  0  0  0  0  0  0
    3.7916   -0.7034   14.4040 H   0  0  0  0  0  0  0  0  0  0  0  0
    5.0128   -2.0737   16.0588 H   0  0  0  0  0  0  0  0  0  0  0  0
    3.8503   -3.4025   17.4903 H   0  0  0  0  0  0  0  0  0  0  0  0
   -0.1484   -3.6210   18.5132 H   0  0  0  0  0  0  0  0  0  0  0  0
    2.1367   -5.2895   20.1527 H   0  0  0  0  0  0  0  0  0  0  0  0
    0.9380   -5.0942   21.3065 H   0  0  0  0  0  0  0  0  0  0  0  0
    0.3495   -2.8995   21.4589 H   0  0  0  0  0  0  0  0  0  0  0  0
    1.7800   -3.2890   21.6366 H   0  0  0  0  0  0  0  0  0  0  0  0
  1  2  1  0
  2  3  1  0
  3  4  1  0
  4  5  1  0
  5  6  1  0
  6  7  2  0
  6  8  1  0
  8  9  1  0
  9 10  2  0
 10 11  1  0
 11 12  1  0
  2 13  1  0
 13 14  1  0
 14 15  2  0
 14 16  1  0
 16 17  2  0
 17 18  1  0
 18 19  2  0
 19 20  1  0
 20 21  1  0
 21 22  1  0
 22 23  1  0
 20 24  2  0
 12  8  2  0
 24 16  1  0
 23 21  1  0
  1 25  1  0
  1 26  1  0
  1 27  1  0
  2 28  1  0
  3 29  1  0
  3 30  1  0
  4 31  1  0
  4 32  1  0
  5 33  1  0
  9 34  1  0
 11 35  1  0
 12 36  1  0
 13 37  1  0
 17 38  1  0
 18 39  1  0
 19 40  1  0
 21 41  1  0
 22 42  1  0
 22 43  1  0
 23 44  1  0
 23 45  1  0
M  END
>  <Energy>  (522) 
610.45376578743833

>  <compound_id>  (522) 
15946

>  <target_id>  (522) 
1

>  <reference_id>  (522) 
99

>  <inspiration_ids>  (522) 
[56, 99]

>  <energy_score>  (522) 
544.3615039763015

>  <distance_score>  (522) 
11.524118649501498

>  <path>  (522) 
/opt/xchem-fragalysis-2/maxwin/BulkDock/SCRATCH/511014/C15946-P99/C15946-P99.minimised.mol

>  <scratch_subdir>  (522) 
/opt/xchem-fragalysis-2/maxwin/BulkDock/SCRATCH/511014/C15946-P99

>  <fragmenstein_runtime>  (522) 
48.295974016189575

>  <fragmenstein_outcome>  (522) 
too moved

>  <fragmenstein_mode>  (522) 
expansion

>  <fragmenstein_error>  (522) 


$$$$
C15949-P56
     RDKit          3D

 43 45  0  0  0  0  0  0  0  0999 V2000
  -12.8548   -7.0102   18.6927 O   0  0  0  0  0  0  0  0  0  0  0  0
  -11.8727   -7.4409   18.1681 C   0  0  0  0  0  0  0  0  0  0  0  0
  -11.0101   -8.5126   18.5463 N   0  0  0  0  0  0  0  0  0  0  0  0
  -11.1054   -9.4802   19.6338 C   0  0  0  0  0  0  0  0  0  0  0  0
  -11.0191   -8.8925   21.0648 C   0  0  0  0  0  0  0  0  0  0  0  0
  -12.1772   -8.0967   21.3676 O   0  0  0  0  0  0  0  0  0  0  0  0
  -10.9859  -10.0715   22.1212 C   0  0  0  0  0  0  0  0  0  0  0  0
  -10.4123   -9.8104   23.4578 N   0  0  0  0  0  0  0  0  0  0  0  0
  -10.0149  -10.7279   24.5243 C   0  0  0  0  0  0  0  0  0  0  0  0
   -9.9816  -11.9227   24.5498 O   0  0  0  0  0  0  0  0  0  0  0  0
   -9.5672  -10.0360   25.8798 C   0  0  0  0  0  0  0  0  0  0  0  0
   -8.8728  -10.9179   26.9796 C   0  0  0  0  0  0  0  0  0  0  0  0
   -9.4026  -11.0322   28.2739 C   0  0  0  0  0  0  0  0  0  0  0  0
   -8.6984  -11.6892   29.2899 C   0  0  0  0  0  0  0  0  0  0  0  0
   -7.4715  -12.2515   29.0064 C   0  0  0  0  0  0  0  0  0  0  0  0
   -7.0166  -12.1362   27.7089 C   0  0  0  0  0  0  0  0  0  0  0  0
   -7.6577  -11.4651   26.7153 N   0  0  0  0  0  0  0  0  0  0  0  0
  -10.3560   -8.7822   26.2973 C   0  0  0  0  0  0  0  0  0  0  0  0
   -8.9308   -8.6489   25.8746 C   0  0  0  0  0  0  0  0  0  0  0  0
  -11.4595   -6.7841   16.9035 C   0  0  0  0  0  0  0  0  0  0  0  0
  -12.1451   -5.7042   16.2773 C   0  0  0  0  0  0  0  0  0  0  0  0
  -11.5226   -5.2307   15.1991 N   0  0  0  0  0  0  0  0  0  0  0  0
  -10.4257   -5.9849   15.1184 N   0  0  0  0  0  0  0  0  0  0  0  0
  -10.3753   -6.9805   16.0594 C   0  0  0  0  0  0  0  0  0  0  0  0
  -10.3207   -8.6515   17.8206 H   0  0  0  0  0  0  0  0  0  0  0  0
  -12.0715   -9.9811   19.5063 H   0  0  0  0  0  0  0  0  0  0  0  0
  -10.3054  -10.2083   19.4677 H   0  0  0  0  0  0  0  0  0  0  0  0
  -10.1626   -8.2278   21.1671 H   0  0  0  0  0  0  0  0  0  0  0  0
  -12.4381   -7.6118   20.5577 H   0  0  0  0  0  0  0  0  0  0  0  0
  -12.0090  -10.4189   22.3083 H   0  0  0  0  0  0  0  0  0  0  0  0
  -10.4284  -10.9277   21.7257 H   0  0  0  0  0  0  0  0  0  0  0  0
  -10.3956   -8.8684   23.8107 H   0  0  0  0  0  0  0  0  0  0  0  0
  -10.3696  -10.5958   28.5018 H   0  0  0  0  0  0  0  0  0  0  0  0
   -9.1231  -11.7685   30.2848 H   0  0  0  0  0  0  0  0  0  0  0  0
   -6.8870  -12.7719   29.7544 H   0  0  0  0  0  0  0  0  0  0  0  0
   -6.0680  -12.5821   27.4257 H   0  0  0  0  0  0  0  0  0  0  0  0
  -11.1382   -8.3972   25.6555 H   0  0  0  0  0  0  0  0  0  0  0  0
  -10.5768   -8.6137   27.3459 H   0  0  0  0  0  0  0  0  0  0  0  0
   -8.2176   -8.3949   26.6551 H   0  0  0  0  0  0  0  0  0  0  0  0
   -8.5884   -8.3228   24.9143 H   0  0  0  0  0  0  0  0  0  0  0  0
  -13.0686   -5.2378   16.6004 H   0  0  0  0  0  0  0  0  0  0  0  0
   -9.7537   -5.7554   14.3954 H   0  0  0  0  0  0  0  0  0  0  0  0
   -9.5415   -7.6669   16.0744 H   0  0  0  0  0  0  0  0  0  0  0  0
  1  2  2  0
  2  3  1  0
  3  4  1  0
  4  5  1  0
  5  6  1  0
  5  7  1  0
  7  8  1  0
  8  9  1  0
  9 10  2  0
  9 11  1  0
 11 12  1  0
 12 13  2  0
 13 14  1  0
 14 15  2  0
 15 16  1  0
 16 17  2  0
 11 18  1  0
 18 19  1  0
  2 20  1  0
 20 21  1  0
 21 22  2  0
 22 23  1  0
 23 24  1  0
 19 11  1  0
 24 20  2  0
 17 12  1  0
  3 25  1  0
  4 26  1  0
  4 27  1  0
  5 28  1  0
  6 29  1  0
  7 30  1  0
  7 31  1  0
  8 32  1  0
 13 33  1  0
 14 34  1  0
 15 35  1  0
 16 36  1  0
 18 37  1  0
 18 38  1  0
 19 39  1  0
 19 40  1  0
 21 41  1  0
 23 42  1  0
 24 43  1  0
M  END
>  <Energy>  (523) 
61.23680966714219

>  <compound_id>  (523) 
15949

>  <target_id>  (523) 
1

>  <reference_id>  (523) 
56

>  <inspiration_ids>  (523) 
[56, 99]

>  <energy_score>  (523) 
-18.11757085927411

>  <distance_score>  (523) 
12.596750113721138

>  <path>  (523) 
/opt/xchem-fragalysis-2/maxwin/BulkDock/SCRATCH/511014/C15949-P56/C15949-P56.minimised.mol

>  <scratch_subdir>  (523) 
/opt/xchem-fragalysis-2/maxwin/BulkDock/SCRATCH/511014/C15949-P56

>  <fragmenstein_runtime>  (523) 
43.23317885398865

>  <fragmenstein_outcome>  (523) 
too moved

>  <fragmenstein_mode>  (523) 
expansion

>  <fragmenstein_error>  (523) 


$$$$
C15949-P99
     RDKit          3D

 43 45  0  0  0  0  0  0  0  0999 V2000
   -6.0198   -0.6672    8.2535 O   0  0  0  0  0  0  0  0  0  0  0  0
   -6.6492    0.3284    8.4532 C   0  0  0  0  0  0  0  0  0  0  0  0
   -7.3245    0.7907    9.6363 N   0  0  0  0  0  0  0  0  0  0  0  0
   -7.5334    0.1539   10.9146 C   0  0  0  0  0  0  0  0  0  0  0  0
   -6.6814    0.0461   12.4004 C   0  0  0  0  0  0  0  0  0  0  0  0
   -5.4539   -0.3611   11.9442 O   0  0  0  0  0  0  0  0  0  0  0  0
   -7.3391   -0.9018   13.9365 C   0  0  0  0  0  0  0  0  0  0  0  0
   -6.5608   -2.1514   14.3517 N   0  0  0  0  0  0  0  0  0  0  0  0
   -6.9399   -3.8302   14.1691 C   0  0  0  0  0  0  0  0  0  0  0  0
   -7.9706   -4.3453   13.7348 O   0  0  0  0  0  0  0  0  0  0  0  0
   -5.7122   -5.1206   14.7962 C   0  0  0  0  0  0  0  0  0  0  0  0
   -5.0023   -5.2812   16.4641 C   0  0  0  0  0  0  0  0  0  0  0  0
   -4.4435   -4.4081   17.2334 C   0  0  0  0  0  0  0  0  0  0  0  0
   -4.2458   -4.2247   18.9731 C   0  0  0  0  0  0  0  0  0  0  0  0
   -4.8986   -4.2649   20.1165 C   0  0  0  0  0  0  0  0  0  0  0  0
   -5.5818   -4.9488   19.3385 C   0  0  0  0  0  0  0  0  0  0  0  0
   -5.5898   -5.5834   17.5660 N   0  0  0  0  0  0  0  0  0  0  0  0
   -5.5487   -6.1982   13.7110 C   0  0  0  0  0  0  0  0  0  0  0  0
   -6.4738   -6.5301   14.8094 C   0  0  0  0  0  0  0  0  0  0  0  0
   -6.8590    1.1813    7.2886 C   0  0  0  0  0  0  0  0  0  0  0  0
   -6.2989    0.9477    6.0065 C   0  0  0  0  0  0  0  0  0  0  0  0
   -6.7288    1.8133    5.0881 N   0  0  0  0  0  0  0  0  0  0  0  0
   -7.6190    2.5582    5.7588 N   0  0  0  0  0  0  0  0  0  0  0  0
   -7.7110    2.2463    7.0854 C   0  0  0  0  0  0  0  0  0  0  0  0
   -7.6856    1.7184    9.4682 H   0  0  0  0  0  0  0  0  0  0  0  0
   -8.6163    0.0287   10.9580 H   0  0  0  0  0  0  0  0  0  0  0  0
   -7.0690   -0.6950   10.4913 H   0  0  0  0  0  0  0  0  0  0  0  0
   -6.6670    1.0820   12.7652 H   0  0  0  0  0  0  0  0  0  0  0  0
   -4.7550   -0.3387   12.6256 H   0  0  0  0  0  0  0  0  0  0  0  0
   -8.3656   -1.2768   13.8431 H   0  0  0  0  0  0  0  0  0  0  0  0
   -7.2292   -0.1879   14.7589 H   0  0  0  0  0  0  0  0  0  0  0  0
   -5.7132   -2.0575   14.7902 H   0  0  0  0  0  0  0  0  0  0  0  0
   -3.7705   -3.8717   16.6049 H   0  0  0  0  0  0  0  0  0  0  0  0
   -3.5636   -5.0530   19.1978 H   0  0  0  0  0  0  0  0  0  0  0  0
   -4.7355   -4.4397   21.1514 H   0  0  0  0  0  0  0  0  0  0  0  0
   -6.1772   -5.6197   19.9721 H   0  0  0  0  0  0  0  0  0  0  0  0
   -5.9606   -5.9823   12.7345 H   0  0  0  0  0  0  0  0  0  0  0  0
   -4.7256   -6.8805   13.6206 H   0  0  0  0  0  0  0  0  0  0  0  0
   -7.5447   -6.4188   14.8511 H   0  0  0  0  0  0  0  0  0  0  0  0
   -6.1511   -7.3156   15.4908 H   0  0  0  0  0  0  0  0  0  0  0  0
   -5.6014    0.1684    5.7202 H   0  0  0  0  0  0  0  0  0  0  0  0
   -8.1260    3.2730    5.2469 H   0  0  0  0  0  0  0  0  0  0  0  0
   -8.4034    2.7733    7.7248 H   0  0  0  0  0  0  0  0  0  0  0  0
  1  2  2  0
  2  3  1  0
  3  4  1  0
  4  5  1  0
  5  6  1  0
  5  7  1  0
  7  8  1  0
  8  9  1  0
  9 10  2  0
  9 11  1  0
 11 12  1  0
 12 13  2  0
 13 14  1  0
 14 15  2  0
 15 16  1  0
 16 17  2  0
 11 18  1  0
 18 19  1  0
  2 20  1  0
 20 21  1  0
 21 22  2  0
 22 23  1  0
 23 24  1  0
 19 11  1  0
 24 20  2  0
 17 12  1  0
  3 25  1  0
  4 26  1  0
  4 27  1  0
  5 28  1  0
  6 29  1  0
  7 30  1  0
  7 31  1  0
  8 32  1  0
 13 33  1  0
 14 34  1  0
 15 35  1  0
 16 36  1  0
 18 37  1  0
 18 38  1  0
 19 39  1  0
 19 40  1  0
 21 41  1  0
 23 42  1  0
 24 43  1  0
M  END
>  <Energy>  (524) 
507.40720941864066

>  <compound_id>  (524) 
15949

>  <target_id>  (524) 
1

>  <reference_id>  (524) 
99

>  <inspiration_ids>  (524) 
[56, 99]

>  <energy_score>  (524) 
428.0528288922101

>  <distance_score>  (524) 
10.217705403184615

>  <path>  (524) 
/opt/xchem-fragalysis-2/maxwin/BulkDock/SCRATCH/511014/C15949-P99/C15949-P99.minimised.mol

>  <scratch_subdir>  (524) 
/opt/xchem-fragalysis-2/maxwin/BulkDock/SCRATCH/511014/C15949-P99

>  <fragmenstein_runtime>  (524) 
33.31295967102051

>  <fragmenstein_outcome>  (524) 
too moved

>  <fragmenstein_mode>  (524) 
expansion

>  <fragmenstein_error>  (524) 


$$$$
C15951-P56
     RDKit          3D

 42 44  0  0  0  0  0  0  0  0999 V2000
   -4.7460   -0.4688   11.7546 C   0  0  0  0  0  0  0  0  0  0  0  0
   -6.2154   -0.3911   12.2827 C   0  0  0  0  0  0  0  0  0  0  0  0
   -7.3188   -0.1859   10.7692 C   0  0  0  0  0  0  0  0  0  0  0  0
   -7.1939   -0.6676    9.3802 N   0  0  0  0  0  0  0  0  0  0  0  0
   -6.5954   -0.0756    8.2361 C   0  0  0  0  0  0  0  0  0  0  0  0
   -5.9638    0.9322    8.1177 O   0  0  0  0  0  0  0  0  0  0  0  0
   -6.9476   -0.8559    7.0382 C   0  0  0  0  0  0  0  0  0  0  0  0
   -7.3031   -2.2171    6.8507 C   0  0  0  0  0  0  0  0  0  0  0  0
   -7.7117   -2.4911    5.6107 N   0  0  0  0  0  0  0  0  0  0  0  0
   -7.6395   -1.3072    4.9888 N   0  0  0  0  0  0  0  0  0  0  0  0
   -7.1772   -0.3053    5.7906 C   0  0  0  0  0  0  0  0  0  0  0  0
   -6.7443   -0.7947   14.0703 N   0  0  0  0  0  0  0  0  0  0  0  0
   -7.5284   -1.3222   14.6756 C   0  0  0  0  0  0  0  0  0  0  0  0
   -8.5811   -1.7903   13.5455 O   0  0  0  0  0  0  0  0  0  0  0  0
   -8.0771   -1.6517   16.0650 C   0  0  0  0  0  0  0  0  0  0  0  0
   -8.4159   -3.2071   16.6088 C   0  0  0  0  0  0  0  0  0  0  0  0
   -9.1957   -3.3841   17.8067 C   0  0  0  0  0  0  0  0  0  0  0  0
   -9.1608   -4.5559   18.5762 C   0  0  0  0  0  0  0  0  0  0  0  0
   -8.3830   -5.6003   18.1377 C   0  0  0  0  0  0  0  0  0  0  0  0
   -7.6746   -5.4109   16.9629 C   0  0  0  0  0  0  0  0  0  0  0  0
   -7.6560   -4.2647   16.2090 N   0  0  0  0  0  0  0  0  0  0  0  0
   -9.4211   -0.7992   16.2802 C   0  0  0  0  0  0  0  0  0  0  0  0
   -8.2073   -0.4577   17.0485 C   0  0  0  0  0  0  0  0  0  0  0  0
   -4.3579    0.4436   11.7648 H   0  0  0  0  0  0  0  0  0  0  0  0
   -3.8607   -0.4669   12.3258 H   0  0  0  0  0  0  0  0  0  0  0  0
   -4.5573   -0.5486   10.6480 H   0  0  0  0  0  0  0  0  0  0  0  0
   -6.3525    0.6712   12.5008 H   0  0  0  0  0  0  0  0  0  0  0  0
   -7.4446    0.8530   10.5706 H   0  0  0  0  0  0  0  0  0  0  0  0
   -8.3689   -0.3973   10.9848 H   0  0  0  0  0  0  0  0  0  0  0  0
   -7.7222   -1.4796    9.0912 H   0  0  0  0  0  0  0  0  0  0  0  0
   -7.3163   -3.0291    7.5619 H   0  0  0  0  0  0  0  0  0  0  0  0
   -7.8889   -1.2617    4.0056 H   0  0  0  0  0  0  0  0  0  0  0  0
   -7.0844    0.7073    5.4254 H   0  0  0  0  0  0  0  0  0  0  0  0
   -5.9220   -0.2350   13.9350 H   0  0  0  0  0  0  0  0  0  0  0  0
   -9.7624   -2.5585   18.2225 H   0  0  0  0  0  0  0  0  0  0  0  0
   -9.7411   -4.6362   19.4896 H   0  0  0  0  0  0  0  0  0  0  0  0
   -8.3637   -6.5466   18.6576 H   0  0  0  0  0  0  0  0  0  0  0  0
   -7.0797   -6.2234   16.5615 H   0  0  0  0  0  0  0  0  0  0  0  0
  -10.2785   -1.2309   16.7789 H   0  0  0  0  0  0  0  0  0  0  0  0
   -9.7802   -0.0989   15.5429 H   0  0  0  0  0  0  0  0  0  0  0  0
   -7.6811    0.4558   16.7884 H   0  0  0  0  0  0  0  0  0  0  0  0
   -8.2538   -0.6290   18.1163 H   0  0  0  0  0  0  0  0  0  0  0  0
  1  2  1  0
  2  3  1  0
  3  4  1  0
  4  5  1  0
  5  6  2  0
  5  7  1  0
  7  8  1  0
  8  9  2  0
  9 10  1  0
 10 11  1  0
  2 12  1  0
 12 13  1  0
 13 14  2  0
 13 15  1  0
 15 16  1  0
 16 17  2  0
 17 18  1  0
 18 19  2  0
 19 20  1  0
 20 21  2  0
 15 22  1  0
 22 23  1  0
 11  7  2  0
 23 15  1  0
 21 16  1  0
  1 24  1  0
  1 25  1  0
  1 26  1  0
  2 27  1  0
  3 28  1  0
  3 29  1  0
  4 30  1  0
  8 31  1  0
 10 32  1  0
 11 33  1  0
 12 34  1  0
 17 35  1  0
 18 36  1  0
 19 37  1  0
 20 38  1  0
 22 39  1  0
 22 40  1  0
 23 41  1  0
 23 42  1  0
M  END
>  <Energy>  (525) 
401.1254079969562

>  <compound_id>  (525) 
15951

>  <target_id>  (525) 
1

>  <reference_id>  (525) 
56

>  <inspiration_ids>  (525) 
[56, 99]

>  <energy_score>  (525) 
344.6952705240776

>  <distance_score>  (525) 
11.091985038731451

>  <path>  (525) 
/opt/xchem-fragalysis-2/maxwin/BulkDock/SCRATCH/511014/C15951-P56/C15951-P56.minimised.mol

>  <scratch_subdir>  (525) 
/opt/xchem-fragalysis-2/maxwin/BulkDock/SCRATCH/511014/C15951-P56

>  <fragmenstein_runtime>  (525) 
23.486919403076172

>  <fragmenstein_outcome>  (525) 
too moved

>  <fragmenstein_mode>  (525) 
expansion

>  <fragmenstein_error>  (525) 


$$$$
C15951-P99
     RDKit          3D

 42 44  0  0  0  0  0  0  0  0999 V2000
   -6.4496   -0.1724    9.3575 C   0  0  0  0  0  0  0  0  0  0  0  0
   -7.2935    0.3671   10.5614 C   0  0  0  0  0  0  0  0  0  0  0  0
   -8.8701    0.2187   10.2557 C   0  0  0  0  0  0  0  0  0  0  0  0
   -9.2165   -0.3772    8.9722 N   0  0  0  0  0  0  0  0  0  0  0  0
   -9.0781    0.1189    7.6407 C   0  0  0  0  0  0  0  0  0  0  0  0
   -8.7149    1.1830    7.2390 O   0  0  0  0  0  0  0  0  0  0  0  0
   -9.3730   -0.9259    6.6553 C   0  0  0  0  0  0  0  0  0  0  0  0
   -8.7604   -1.1007    5.3906 C   0  0  0  0  0  0  0  0  0  0  0  0
   -9.2387   -2.1490    4.7131 N   0  0  0  0  0  0  0  0  0  0  0  0
  -10.2096   -2.6208    5.5175 N   0  0  0  0  0  0  0  0  0  0  0  0
  -10.2985   -1.9492    6.7055 C   0  0  0  0  0  0  0  0  0  0  0  0
   -6.6993    0.2638   12.1718 N   0  0  0  0  0  0  0  0  0  0  0  0
   -6.8354    1.2675   13.3853 C   0  0  0  0  0  0  0  0  0  0  0  0
   -7.3174    2.3773   13.4265 O   0  0  0  0  0  0  0  0  0  0  0  0
   -6.3767    0.7685   14.9867 C   0  0  0  0  0  0  0  0  0  0  0  0
   -5.8693   -0.6219   15.5990 C   0  0  0  0  0  0  0  0  0  0  0  0
   -6.6675   -1.7649   15.6128 C   0  0  0  0  0  0  0  0  0  0  0  0
   -6.3506   -2.8618   16.4309 C   0  0  0  0  0  0  0  0  0  0  0  0
   -5.2696   -2.8026   17.2910 C   0  0  0  0  0  0  0  0  0  0  0  0
   -4.5048   -1.6591   17.2500 C   0  0  0  0  0  0  0  0  0  0  0  0
   -4.7827   -0.5971   16.4480 N   0  0  0  0  0  0  0  0  0  0  0  0
   -7.3503    1.4226   16.0459 C   0  0  0  0  0  0  0  0  0  0  0  0
   -5.9929    2.0027   15.8785 C   0  0  0  0  0  0  0  0  0  0  0  0
   -5.3682   -0.2356    9.4989 H   0  0  0  0  0  0  0  0  0  0  0  0
   -6.7869   -1.1554    9.0187 H   0  0  0  0  0  0  0  0  0  0  0  0
   -6.5670    0.5053    8.5042 H   0  0  0  0  0  0  0  0  0  0  0  0
   -7.3225    1.4095   10.3909 H   0  0  0  0  0  0  0  0  0  0  0  0
   -9.3890   -0.4055   10.9740 H   0  0  0  0  0  0  0  0  0  0  0  0
   -9.3413    1.2094   10.2782 H   0  0  0  0  0  0  0  0  0  0  0  0
   -9.6323   -1.3039    8.9385 H   0  0  0  0  0  0  0  0  0  0  0  0
   -7.9754   -0.5004    4.9479 H   0  0  0  0  0  0  0  0  0  0  0  0
  -10.8174   -3.3680    5.1788 H   0  0  0  0  0  0  0  0  0  0  0  0
  -11.0444   -2.2310    7.4327 H   0  0  0  0  0  0  0  0  0  0  0  0
   -6.1692   -0.5457   12.4649 H   0  0  0  0  0  0  0  0  0  0  0  0
   -7.5692   -1.7891   15.0083 H   0  0  0  0  0  0  0  0  0  0  0  0
   -6.9745   -3.7485   16.3867 H   0  0  0  0  0  0  0  0  0  0  0  0
   -5.0226   -3.6198   17.9574 H   0  0  0  0  0  0  0  0  0  0  0  0
   -3.6226   -1.5472   17.8721 H   0  0  0  0  0  0  0  0  0  0  0  0
   -8.1877    2.0193   15.7036 H   0  0  0  0  0  0  0  0  0  0  0  0
   -7.5565    0.8889   16.9670 H   0  0  0  0  0  0  0  0  0  0  0  0
   -5.2687    1.8606   16.6725 H   0  0  0  0  0  0  0  0  0  0  0  0
   -5.9435    2.9900   15.4352 H   0  0  0  0  0  0  0  0  0  0  0  0
  1  2  1  0
  2  3  1  0
  3  4  1  0
  4  5  1  0
  5  6  2  0
  5  7  1  0
  7  8  1  0
  8  9  2  0
  9 10  1  0
 10 11  1  0
  2 12  1  0
 12 13  1  0
 13 14  2  0
 13 15  1  0
 15 16  1  0
 16 17  2  0
 17 18  1  0
 18 19  2  0
 19 20  1  0
 20 21  2  0
 15 22  1  0
 22 23  1  0
 11  7  2  0
 23 15  1  0
 21 16  1  0
  1 24  1  0
  1 25  1  0
  1 26  1  0
  2 27  1  0
  3 28  1  0
  3 29  1  0
  4 30  1  0
  8 31  1  0
 10 32  1  0
 11 33  1  0
 12 34  1  0
 17 35  1  0
 18 36  1  0
 19 37  1  0
 20 38  1  0
 22 39  1  0
 22 40  1  0
 23 41  1  0
 23 42  1  0
M  END
>  <Energy>  (526) 
120.05133093231551

>  <compound_id>  (526) 
15951

>  <target_id>  (526) 
1

>  <reference_id>  (526) 
99

>  <inspiration_ids>  (526) 
[56, 99]

>  <energy_score>  (526) 
63.62119345943074

>  <distance_score>  (526) 
11.474774896592702

>  <path>  (526) 
/opt/xchem-fragalysis-2/maxwin/BulkDock/SCRATCH/511014/C15951-P99/C15951-P99.minimised.mol

>  <scratch_subdir>  (526) 
/opt/xchem-fragalysis-2/maxwin/BulkDock/SCRATCH/511014/C15951-P99

>  <fragmenstein_runtime>  (526) 
26.520390033721924

>  <fragmenstein_outcome>  (526) 
too moved

>  <fragmenstein_mode>  (526) 
expansion

>  <fragmenstein_error>  (526) 


$$$$
C15952-P56
     RDKit          3D

 42 44  0  0  0  0  0  0  0  0999 V2000
   -9.5564   -2.2088   20.5338 C   0  0  0  0  0  0  0  0  0  0  0  0
   -9.3874   -3.7243   20.4282 C   0  0  0  0  0  0  0  0  0  0  0  0
   -8.3662   -4.2766   21.5441 C   0  0  0  0  0  0  0  0  0  0  0  0
   -8.3742   -3.6703   22.9527 N   0  0  0  0  0  0  0  0  0  0  0  0
   -8.5467   -4.3637   24.3709 C   0  0  0  0  0  0  0  0  0  0  0  0
   -8.7834   -5.4815   24.6465 O   0  0  0  0  0  0  0  0  0  0  0  0
   -8.3373   -3.3830   25.6731 C   0  0  0  0  0  0  0  0  0  0  0  0
   -7.5871   -3.9139   27.1142 C   0  0  0  0  0  0  0  0  0  0  0  0
   -7.4794   -5.2430   27.4707 C   0  0  0  0  0  0  0  0  0  0  0  0
   -7.0081   -5.5881   28.7292 C   0  0  0  0  0  0  0  0  0  0  0  0
   -6.7562   -4.6474   29.7053 C   0  0  0  0  0  0  0  0  0  0  0  0
   -6.7058   -3.3654   29.2575 C   0  0  0  0  0  0  0  0  0  0  0  0
   -7.0693   -2.9990   27.9963 N   0  0  0  0  0  0  0  0  0  0  0  0
   -8.3424   -1.8597   25.4805 C   0  0  0  0  0  0  0  0  0  0  0  0
   -9.5871   -2.5301   25.9684 C   0  0  0  0  0  0  0  0  0  0  0  0
   -9.2257   -4.0996   18.9388 N   0  0  0  0  0  0  0  0  0  0  0  0
   -8.3807   -3.4157   17.7984 C   0  0  0  0  0  0  0  0  0  0  0  0
   -7.6272   -2.5171   17.8470 O   0  0  0  0  0  0  0  0  0  0  0  0
   -8.6601   -3.9386   16.3712 C   0  0  0  0  0  0  0  0  0  0  0  0
   -7.8591   -3.7010   15.1786 C   0  0  0  0  0  0  0  0  0  0  0  0
   -8.3550   -4.2458   14.0616 N   0  0  0  0  0  0  0  0  0  0  0  0
   -9.5308   -4.7231   14.4453 N   0  0  0  0  0  0  0  0  0  0  0  0
   -9.7421   -4.6033   15.7998 C   0  0  0  0  0  0  0  0  0  0  0  0
   -8.6268   -1.6887   20.2953 H   0  0  0  0  0  0  0  0  0  0  0  0
   -9.8694   -1.9098   21.5389 H   0  0  0  0  0  0  0  0  0  0  0  0
  -10.3206   -1.8543   19.8330 H   0  0  0  0  0  0  0  0  0  0  0  0
  -10.3588   -4.1645   20.6890 H   0  0  0  0  0  0  0  0  0  0  0  0
   -7.3473   -4.1223   21.1729 H   0  0  0  0  0  0  0  0  0  0  0  0
   -8.5126   -5.3557   21.6605 H   0  0  0  0  0  0  0  0  0  0  0  0
   -8.0935   -2.7105   23.0774 H   0  0  0  0  0  0  0  0  0  0  0  0
   -7.8077   -6.0192   26.7857 H   0  0  0  0  0  0  0  0  0  0  0  0
   -6.8670   -6.6385   28.8685 H   0  0  0  0  0  0  0  0  0  0  0  0
   -6.5740   -4.8856   30.7391 H   0  0  0  0  0  0  0  0  0  0  0  0
   -6.4212   -2.5419   29.9051 H   0  0  0  0  0  0  0  0  0  0  0  0
   -7.7797   -1.2584   26.1890 H   0  0  0  0  0  0  0  0  0  0  0  0
   -8.3853   -1.4033   24.5035 H   0  0  0  0  0  0  0  0  0  0  0  0
  -10.4288   -2.6116   25.2907 H   0  0  0  0  0  0  0  0  0  0  0  0
   -9.8708   -2.3839   27.0050 H   0  0  0  0  0  0  0  0  0  0  0  0
   -9.8377   -4.7975   18.5352 H   0  0  0  0  0  0  0  0  0  0  0  0
   -6.9217   -3.1579   15.1355 H   0  0  0  0  0  0  0  0  0  0  0  0
  -10.1333   -5.1416   13.7457 H   0  0  0  0  0  0  0  0  0  0  0  0
  -10.6617   -4.9694   16.2310 H   0  0  0  0  0  0  0  0  0  0  0  0
  1  2  1  0
  2  3  1  0
  3  4  1  0
  4  5  1  0
  5  6  2  0
  5  7  1  0
  7  8  1  0
  8  9  2  0
  9 10  1  0
 10 11  2  0
 11 12  1  0
 12 13  2  0
  7 14  1  0
 14 15  1  0
  2 16  1  0
 16 17  1  0
 17 18  2  0
 17 19  1  0
 19 20  1  0
 20 21  2  0
 21 22  1  0
 22 23  1  0
 15  7  1  0
 23 19  2  0
 13  8  1  0
  1 24  1  0
  1 25  1  0
  1 26  1  0
  2 27  1  0
  3 28  1  0
  3 29  1  0
  4 30  1  0
  9 31  1  0
 10 32  1  0
 11 33  1  0
 12 34  1  0
 14 35  1  0
 14 36  1  0
 15 37  1  0
 15 38  1  0
 16 39  1  0
 20 40  1  0
 22 41  1  0
 23 42  1  0
M  END
>  <Energy>  (527) 
97.865884635897544

>  <compound_id>  (527) 
15952

>  <target_id>  (527) 
1

>  <reference_id>  (527) 
56

>  <inspiration_ids>  (527) 
[56, 99]

>  <energy_score>  (527) 
44.36300422926456

>  <distance_score>  (527) 
10.8640000240523

>  <path>  (527) 
/opt/xchem-fragalysis-2/maxwin/BulkDock/SCRATCH/511014/C15952-P56/C15952-P56.minimised.mol

>  <scratch_subdir>  (527) 
/opt/xchem-fragalysis-2/maxwin/BulkDock/SCRATCH/511014/C15952-P56

>  <fragmenstein_runtime>  (527) 
22.374372959136963

>  <fragmenstein_outcome>  (527) 
too moved

>  <fragmenstein_mode>  (527) 
expansion

>  <fragmenstein_error>  (527) 


$$$$
C15952-P99
     RDKit          3D

 42 44  0  0  0  0  0  0  0  0999 V2000
    0.7070   -1.0212   11.8977 C   0  0  0  0  0  0  0  0  0  0  0  0
   -1.0226   -1.1152   11.3958 C   0  0  0  0  0  0  0  0  0  0  0  0
   -1.3818   -1.1925   13.4448 C   0  0  0  0  0  0  0  0  0  0  0  0
   -0.2347   -1.5819   14.9352 N   0  0  0  0  0  0  0  0  0  0  0  0
   -0.5879   -1.7204   16.6943 C   0  0  0  0  0  0  0  0  0  0  0  0
   -1.6555   -1.4893   17.2038 O   0  0  0  0  0  0  0  0  0  0  0  0
    0.7688   -2.3142   18.0789 C   0  0  0  0  0  0  0  0  0  0  0  0
    0.9086   -3.5989   19.7876 C   0  0  0  0  0  0  0  0  0  0  0  0
    0.9882   -3.0910   21.2391 C   0  0  0  0  0  0  0  0  0  0  0  0
    1.1090   -3.5116   22.6045 C   0  0  0  0  0  0  0  0  0  0  0  0
    0.7738   -4.7603   22.8293 C   0  0  0  0  0  0  0  0  0  0  0  0
    0.9939   -5.3272   21.6433 C   0  0  0  0  0  0  0  0  0  0  0  0
    1.3134   -4.8127   20.3062 N   0  0  0  0  0  0  0  0  0  0  0  0
    1.5706   -0.8930   18.0360 C   0  0  0  0  0  0  0  0  0  0  0  0
    2.1436   -1.9729   17.1786 C   0  0  0  0  0  0  0  0  0  0  0  0
   -1.9149   -1.2740    9.4784 N   0  0  0  0  0  0  0  0  0  0  0  0
   -3.2079   -0.6339    8.9107 C   0  0  0  0  0  0  0  0  0  0  0  0
   -3.9591    0.1645    9.4001 O   0  0  0  0  0  0  0  0  0  0  0  0
   -3.7165   -1.0976    7.6330 C   0  0  0  0  0  0  0  0  0  0  0  0
   -3.1630   -1.4225    6.4153 C   0  0  0  0  0  0  0  0  0  0  0  0
   -4.0475   -1.7885    5.4790 N   0  0  0  0  0  0  0  0  0  0  0  0
   -5.2191   -1.7288    6.1258 N   0  0  0  0  0  0  0  0  0  0  0  0
   -5.0783   -1.2850    7.4006 C   0  0  0  0  0  0  0  0  0  0  0  0
    1.3800   -1.5594   11.2246 H   0  0  0  0  0  0  0  0  0  0  0  0
    0.7296   -1.1672   12.9749 H   0  0  0  0  0  0  0  0  0  0  0  0
    1.3509   -0.1626   12.2036 H   0  0  0  0  0  0  0  0  0  0  0  0
   -1.2293   -0.1206   11.5686 H   0  0  0  0  0  0  0  0  0  0  0  0
   -2.0155   -2.0573   13.6329 H   0  0  0  0  0  0  0  0  0  0  0  0
   -1.8339   -0.2409   13.7378 H   0  0  0  0  0  0  0  0  0  0  0  0
    0.7030   -1.9093   14.7569 H   0  0  0  0  0  0  0  0  0  0  0  0
    2.0460   -3.0202   21.4786 H   0  0  0  0  0  0  0  0  0  0  0  0
    1.9560   -3.1107   23.1370 H   0  0  0  0  0  0  0  0  0  0  0  0
    0.5755   -5.2545   23.7334 H   0  0  0  0  0  0  0  0  0  0  0  0
    0.7991   -6.4037   21.6164 H   0  0  0  0  0  0  0  0  0  0  0  0
    2.1306   -0.5046   18.8573 H   0  0  0  0  0  0  0  0  0  0  0  0
    1.0665   -0.0644   17.5422 H   0  0  0  0  0  0  0  0  0  0  0  0
    2.0684   -1.8307   16.1110 H   0  0  0  0  0  0  0  0  0  0  0  0
    3.1206   -2.3750   17.3894 H   0  0  0  0  0  0  0  0  0  0  0  0
   -1.4893   -1.8362    8.7700 H   0  0  0  0  0  0  0  0  0  0  0  0
   -2.1203   -1.4008    6.1795 H   0  0  0  0  0  0  0  0  0  0  0  0
   -6.0693   -1.9849    5.6326 H   0  0  0  0  0  0  0  0  0  0  0  0
   -5.9332   -1.1442    8.0485 H   0  0  0  0  0  0  0  0  0  0  0  0
  1  2  1  0
  2  3  1  0
  3  4  1  0
  4  5  1  0
  5  6  2  0
  5  7  1  0
  7  8  1  0
  8  9  2  0
  9 10  1  0
 10 11  2  0
 11 12  1  0
 12 13  2  0
  7 14  1  0
 14 15  1  0
  2 16  1  0
 16 17  1  0
 17 18  2  0
 17 19  1  0
 19 20  1  0
 20 21  2  0
 21 22  1  0
 22 23  1  0
 15  7  1  0
 23 19  2  0
 13  8  1  0
  1 24  1  0
  1 25  1  0
  1 26  1  0
  2 27  1  0
  3 28  1  0
  3 29  1  0
  4 30  1  0
  9 31  1  0
 10 32  1  0
 11 33  1  0
 12 34  1  0
 14 35  1  0
 14 36  1  0
 15 37  1  0
 15 38  1  0
 16 39  1  0
 20 40  1  0
 22 41  1  0
 23 42  1  0
M  END
>  <Energy>  (528) 
862.07830164488325

>  <compound_id>  (528) 
15952

>  <target_id>  (528) 
1

>  <reference_id>  (528) 
99

>  <inspiration_ids>  (528) 
[56, 99]

>  <energy_score>  (528) 
815.7991175654895

>  <distance_score>  (528) 
8.618551158536336

>  <path>  (528) 
/opt/xchem-fragalysis-2/maxwin/BulkDock/SCRATCH/511014/C15952-P99/C15952-P99.minimised.mol

>  <scratch_subdir>  (528) 
/opt/xchem-fragalysis-2/maxwin/BulkDock/SCRATCH/511014/C15952-P99

>  <fragmenstein_runtime>  (528) 
34.21849489212036

>  <fragmenstein_outcome>  (528) 
too moved

>  <fragmenstein_mode>  (528) 
expansion

>  <fragmenstein_error>  (528) 


$$$$
C9236-P52
     RDKit          3D

 50 52  0  0  0  0  0  0  0  0999 V2000
  -11.9432  -30.0088   17.2433 C   0  0  0  0  0  0  0  0  0  0  0  0
  -11.4750  -29.7419   18.6924 C   0  0  0  0  0  0  0  0  0  0  0  0
  -12.0340  -30.8671   19.5830 C   0  0  0  0  0  0  0  0  0  0  0  0
  -11.4423  -28.1600   19.3289 C   0  0  0  0  0  0  0  0  0  0  0  0
  -10.4330  -27.7652   21.1615 C   0  0  0  0  0  0  0  0  0  0  0  0
  -10.5389  -27.2505   23.1069 N   0  0  0  0  0  0  0  0  0  0  0  0
  -11.4543  -26.5200   24.6509 C   0  0  0  0  0  0  0  0  0  0  0  0
  -11.5890  -25.4620   25.8468 C   0  0  0  0  0  0  0  0  0  0  0  0
  -12.0626  -26.0214   27.0819 C   0  0  0  0  0  0  0  0  0  0  0  0
  -12.1246  -25.3394   28.3136 C   0  0  0  0  0  0  0  0  0  0  0  0
  -11.7553  -24.0014   28.2930 C   0  0  0  0  0  0  0  0  0  0  0  0
  -11.3632  -23.3736   27.1144 C   0  0  0  0  0  0  0  0  0  0  0  0
  -11.2283  -24.1090   25.9030 C   0  0  0  0  0  0  0  0  0  0  0  0
  -11.1485  -22.0424   27.3447 N   0  0  0  0  0  0  0  0  0  0  0  0
  -11.3047  -21.8591   28.6318 C   0  0  0  0  0  0  0  0  0  0  0  0
  -11.6464  -23.0224   29.2529 N   0  0  0  0  0  0  0  0  0  0  0  0
  -11.7964  -23.1478   30.6783 C   0  0  0  0  0  0  0  0  0  0  0  0
  -12.7222  -27.4699   18.6583 N   0  0  0  0  0  0  0  0  0  0  0  0
  -12.5054  -26.9448   17.2931 C   0  0  0  0  0  0  0  0  0  0  0  0
  -13.8621  -26.3770   16.9360 C   0  0  0  0  0  0  0  0  0  0  0  0
  -14.7863  -27.4644   17.4441 C   0  0  0  0  0  0  0  0  0  0  0  0
  -14.0648  -28.0427   18.6701 C   0  0  0  0  0  0  0  0  0  0  0  0
  -12.9989  -29.8195   17.0598 H   0  0  0  0  0  0  0  0  0  0  0  0
  -11.7816  -31.0641   16.9859 H   0  0  0  0  0  0  0  0  0  0  0  0
  -11.3290  -29.4522   16.5290 H   0  0  0  0  0  0  0  0  0  0  0  0
  -10.4515  -29.9657   18.4995 H   0  0  0  0  0  0  0  0  0  0  0  0
  -13.1083  -30.7598   19.7562 H   0  0  0  0  0  0  0  0  0  0  0  0
  -11.8838  -31.8468   19.1143 H   0  0  0  0  0  0  0  0  0  0  0  0
  -11.5216  -30.9140   20.5488 H   0  0  0  0  0  0  0  0  0  0  0  0
  -10.7601  -27.6380   18.6227 H   0  0  0  0  0  0  0  0  0  0  0  0
   -9.7892  -27.2160   20.5320 H   0  0  0  0  0  0  0  0  0  0  0  0
  -10.1802  -26.6785   21.3746 H   0  0  0  0  0  0  0  0  0  0  0  0
  -11.4944  -27.4879   22.9877 H   0  0  0  0  0  0  0  0  0  0  0  0
  -12.2318  -27.2626   24.8817 H   0  0  0  0  0  0  0  0  0  0  0  0
  -10.5051  -26.5663   25.2042 H   0  0  0  0  0  0  0  0  0  0  0  0
  -12.3686  -27.0684   27.1017 H   0  0  0  0  0  0  0  0  0  0  0  0
  -12.4467  -25.8415   29.2173 H   0  0  0  0  0  0  0  0  0  0  0  0
  -10.8197  -23.5700   25.0572 H   0  0  0  0  0  0  0  0  0  0  0  0
  -11.1641  -20.9183   29.1509 H   0  0  0  0  0  0  0  0  0  0  0  0
  -12.7309  -22.6615   30.9654 H   0  0  0  0  0  0  0  0  0  0  0  0
  -10.9530  -22.6517   31.1663 H   0  0  0  0  0  0  0  0  0  0  0  0
  -11.7990  -24.2022   30.9594 H   0  0  0  0  0  0  0  0  0  0  0  0
  -12.2638  -27.7074   16.5575 H   0  0  0  0  0  0  0  0  0  0  0  0
  -11.7111  -26.2086   17.2223 H   0  0  0  0  0  0  0  0  0  0  0  0
  -13.9801  -26.1996   15.8633 H   0  0  0  0  0  0  0  0  0  0  0  0
  -14.0466  -25.4369   17.4687 H   0  0  0  0  0  0  0  0  0  0  0  0
  -15.7794  -27.0750   17.6875 H   0  0  0  0  0  0  0  0  0  0  0  0
  -14.9030  -28.2417   16.6795 H   0  0  0  0  0  0  0  0  0  0  0  0
  -14.6148  -27.7160   19.5517 H   0  0  0  0  0  0  0  0  0  0  0  0
  -14.1171  -29.1306   18.6578 H   0  0  0  0  0  0  0  0  0  0  0  0
  1  2  1  0
  2  3  1  0
  2  4  1  0
  4  5  1  0
  5  6  1  0
  6  7  1  0
  7  8  1  0
  8  9  2  0
  9 10  1  0
 10 11  2  0
 11 12  1  0
 12 13  2  0
 12 14  1  0
 14 15  2  0
 15 16  1  0
 16 17  1  0
  4 18  1  0
 18 19  1  0
 19 20  1  0
 20 21  1  0
 21 22  1  0
 13  8  1  0
 22 18  1  0
 16 11  1  0
  1 23  1  0
  1 24  1  0
  1 25  1  0
  2 26  1  0
  3 27  1  0
  3 28  1  0
  3 29  1  0
  4 30  1  0
  5 31  1  0
  5 32  1  0
  6 33  1  0
  7 34  1  0
  7 35  1  0
  9 36  1  0
 10 37  1  0
 13 38  1  0
 15 39  1  0
 17 40  1  0
 17 41  1  0
 17 42  1  0
 19 43  1  0
 19 44  1  0
 20 45  1  0
 20 46  1  0
 21 47  1  0
 21 48  1  0
 22 49  1  0
 22 50  1  0
M  END
>  <Energy>  (529) 
568.02387899521955

>  <compound_id>  (529) 
9236

>  <target_id>  (529) 
1

>  <reference_id>  (529) 
52

>  <inspiration_ids>  (529) 
[52, 30]

>  <energy_score>  (529) 
487.7063129564574

>  <distance_score>  (529) 
5.233227349804806

>  <path>  (529) 
/opt/xchem-fragalysis-2/maxwin/BulkDock/SCRATCH/511014/C9236-P52/C9236-P52.minimised.mol

>  <scratch_subdir>  (529) 
/opt/xchem-fragalysis-2/maxwin/BulkDock/SCRATCH/511014/C9236-P52

>  <fragmenstein_runtime>  (529) 
18.71248149871826

>  <fragmenstein_outcome>  (529) 
too moved

>  <fragmenstein_mode>  (529) 
expansion

>  <fragmenstein_error>  (529) 


$$$$
C9236-P30
     RDKit          3D

 50 52  0  0  0  0  0  0  0  0999 V2000
  -12.2354  -29.1683   16.8815 C   0  0  0  0  0  0  0  0  0  0  0  0
  -11.7453  -27.8923   17.6446 C   0  0  0  0  0  0  0  0  0  0  0  0
  -10.6590  -27.2148   16.8277 C   0  0  0  0  0  0  0  0  0  0  0  0
  -12.0329  -27.9090   19.3877 C   0  0  0  0  0  0  0  0  0  0  0  0
  -10.6072  -27.6686   20.9519 C   0  0  0  0  0  0  0  0  0  0  0  0
  -10.4181  -27.0828   22.8101 N   0  0  0  0  0  0  0  0  0  0  0  0
  -11.0459  -27.3764   24.6232 C   0  0  0  0  0  0  0  0  0  0  0  0
  -11.5765  -26.3840   25.6946 C   0  0  0  0  0  0  0  0  0  0  0  0
  -10.7829  -26.0825   26.7574 C   0  0  0  0  0  0  0  0  0  0  0  0
  -10.6092  -24.7752   27.1672 C   0  0  0  0  0  0  0  0  0  0  0  0
  -11.6592  -24.0055   26.7785 C   0  0  0  0  0  0  0  0  0  0  0  0
  -12.7689  -24.4877   26.1080 C   0  0  0  0  0  0  0  0  0  0  0  0
  -12.8587  -25.8380   25.7748 C   0  0  0  0  0  0  0  0  0  0  0  0
  -13.4403  -23.4530   25.5476 N   0  0  0  0  0  0  0  0  0  0  0  0
  -12.6732  -22.4381   25.8873 C   0  0  0  0  0  0  0  0  0  0  0  0
  -12.0196  -22.7396   27.0259 N   0  0  0  0  0  0  0  0  0  0  0  0
  -11.7169  -21.9856   28.1947 C   0  0  0  0  0  0  0  0  0  0  0  0
  -13.5655  -27.4512   19.3130 N   0  0  0  0  0  0  0  0  0  0  0  0
  -13.9209  -26.0680   18.9785 C   0  0  0  0  0  0  0  0  0  0  0  0
  -14.5252  -25.9985   17.5854 C   0  0  0  0  0  0  0  0  0  0  0  0
  -15.1165  -27.3836   17.4007 C   0  0  0  0  0  0  0  0  0  0  0  0
  -14.5706  -28.2325   18.5608 C   0  0  0  0  0  0  0  0  0  0  0  0
  -13.1551  -28.9770   16.3258 H   0  0  0  0  0  0  0  0  0  0  0  0
  -12.4149  -30.0193   17.5444 H   0  0  0  0  0  0  0  0  0  0  0  0
  -11.5315  -29.4841   16.1033 H   0  0  0  0  0  0  0  0  0  0  0  0
  -12.5094  -27.1988   17.3275 H   0  0  0  0  0  0  0  0  0  0  0  0
  -10.7882  -27.4342   15.7587 H   0  0  0  0  0  0  0  0  0  0  0  0
  -10.7999  -26.1448   16.8782 H   0  0  0  0  0  0  0  0  0  0  0  0
   -9.6391  -27.4902   17.0445 H   0  0  0  0  0  0  0  0  0  0  0  0
  -12.1595  -29.0073   19.4440 H   0  0  0  0  0  0  0  0  0  0  0  0
  -10.1843  -26.9803   20.2554 H   0  0  0  0  0  0  0  0  0  0  0  0
  -10.3398  -26.5198   21.1487 H   0  0  0  0  0  0  0  0  0  0  0  0
   -9.4932  -27.4493   23.1141 H   0  0  0  0  0  0  0  0  0  0  0  0
  -11.8823  -28.0544   24.7727 H   0  0  0  0  0  0  0  0  0  0  0  0
  -10.1559  -27.7907   25.0916 H   0  0  0  0  0  0  0  0  0  0  0  0
  -10.3415  -26.9095   27.2918 H   0  0  0  0  0  0  0  0  0  0  0  0
   -9.9154  -24.4243   27.9105 H   0  0  0  0  0  0  0  0  0  0  0  0
  -13.6996  -26.1383   25.1612 H   0  0  0  0  0  0  0  0  0  0  0  0
  -12.5811  -21.4965   25.3657 H   0  0  0  0  0  0  0  0  0  0  0  0
  -10.7024  -21.6252   28.1432 H   0  0  0  0  0  0  0  0  0  0  0  0
  -11.7923  -22.6211   29.0663 H   0  0  0  0  0  0  0  0  0  0  0  0
  -12.4386  -21.1913   28.3307 H   0  0  0  0  0  0  0  0  0  0  0  0
  -13.1709  -25.3225   19.1944 H   0  0  0  0  0  0  0  0  0  0  0  0
  -14.7681  -25.8324   19.6208 H   0  0  0  0  0  0  0  0  0  0  0  0
  -13.7849  -25.7672   16.8140 H   0  0  0  0  0  0  0  0  0  0  0  0
  -15.2998  -25.2267   17.5209 H   0  0  0  0  0  0  0  0  0  0  0  0
  -16.2109  -27.3398   17.4517 H   0  0  0  0  0  0  0  0  0  0  0  0
  -14.8603  -27.7847   16.4178 H   0  0  0  0  0  0  0  0  0  0  0  0
  -15.4228  -28.3931   19.2360 H   0  0  0  0  0  0  0  0  0  0  0  0
  -14.2721  -29.2409   18.2772 H   0  0  0  0  0  0  0  0  0  0  0  0
  1  2  1  0
  2  3  1  0
  2  4  1  0
  4  5  1  0
  5  6  1  0
  6  7  1  0
  7  8  1  0
  8  9  2  0
  9 10  1  0
 10 11  2  0
 11 12  1  0
 12 13  2  0
 12 14  1  0
 14 15  2  0
 15 16  1  0
 16 17  1  0
  4 18  1  0
 18 19  1  0
 19 20  1  0
 20 21  1  0
 21 22  1  0
 13  8  1  0
 22 18  1  0
 16 11  1  0
  1 23  1  0
  1 24  1  0
  1 25  1  0
  2 26  1  0
  3 27  1  0
  3 28  1  0
  3 29  1  0
  4 30  1  0
  5 31  1  0
  5 32  1  0
  6 33  1  0
  7 34  1  0
  7 35  1  0
  9 36  1  0
 10 37  1  0
 13 38  1  0
 15 39  1  0
 17 40  1  0
 17 41  1  0
 17 42  1  0
 19 43  1  0
 19 44  1  0
 20 45  1  0
 20 46  1  0
 21 47  1  0
 21 48  1  0
 22 49  1  0
 22 50  1  0
M  END
>  <Energy>  (530) 
575.92618910789565

>  <compound_id>  (530) 
9236

>  <target_id>  (530) 
1

>  <reference_id>  (530) 
30

>  <inspiration_ids>  (530) 
[52, 30]

>  <energy_score>  (530) 
495.6086230691326

>  <distance_score>  (530) 
5.974046077956506

>  <path>  (530) 
/opt/xchem-fragalysis-2/maxwin/BulkDock/SCRATCH/511014/C9236-P30/C9236-P30.minimised.mol

>  <scratch_subdir>  (530) 
/opt/xchem-fragalysis-2/maxwin/BulkDock/SCRATCH/511014/C9236-P30

>  <fragmenstein_runtime>  (530) 
16.35573124885559

>  <fragmenstein_outcome>  (530) 
too moved

>  <fragmenstein_mode>  (530) 
expansion

>  <fragmenstein_error>  (530) 


$$$$
C9237-P52
     RDKit          3D

 36 38  0  0  0  0  0  0  0  0999 V2000
  -10.1562  -26.0089   21.1826 C   0  0  0  0  0  0  0  0  0  0  0  0
  -11.6981  -24.8958   20.3321 C   0  0  0  0  0  0  0  0  0  0  0  0
  -12.2866  -22.6728   20.8045 S   0  0  0  0  0  0  0  0  0  0  0  0
  -12.1664  -22.3259   22.8806 C   0  0  0  0  0  0  0  0  0  0  0  0
  -11.1214  -22.3232   23.7092 N   0  0  0  0  0  0  0  0  0  0  0  0
  -11.5803  -22.8106   25.0008 C   0  0  0  0  0  0  0  0  0  0  0  0
  -10.9144  -23.2861   26.1637 C   0  0  0  0  0  0  0  0  0  0  0  0
  -11.5752  -24.0102   27.1664 C   0  0  0  0  0  0  0  0  0  0  0  0
  -12.9031  -24.3477   26.9933 C   0  0  0  0  0  0  0  0  0  0  0  0
  -13.6020  -23.9033   25.8621 C   0  0  0  0  0  0  0  0  0  0  0  0
  -12.9300  -23.0787   24.9412 C   0  0  0  0  0  0  0  0  0  0  0  0
  -13.2735  -22.6466   23.6754 N   0  0  0  0  0  0  0  0  0  0  0  0
  -12.3769  -26.0236   18.7377 C   0  0  0  0  0  0  0  0  0  0  0  0
  -11.4245  -26.4782   18.1171 O   0  0  0  0  0  0  0  0  0  0  0  0
  -13.7554  -26.0993   18.4164 N   0  0  0  0  0  0  0  0  0  0  0  0
  -14.3840  -27.3589   19.0517 C   0  0  0  0  0  0  0  0  0  0  0  0
  -15.6073  -28.0039   18.4366 C   0  0  0  0  0  0  0  0  0  0  0  0
  -15.0571  -28.0097   17.0775 C   0  0  0  0  0  0  0  0  0  0  0  0
  -14.4668  -26.6367   17.1989 C   0  0  0  0  0  0  0  0  0  0  0  0
   -9.2295  -25.4199   21.0799 H   0  0  0  0  0  0  0  0  0  0  0  0
   -9.9700  -26.9774   20.6194 H   0  0  0  0  0  0  0  0  0  0  0  0
  -10.3048  -26.7307   22.0061 H   0  0  0  0  0  0  0  0  0  0  0  0
  -10.7057  -24.5426   20.2945 H   0  0  0  0  0  0  0  0  0  0  0  0
   -9.8481  -23.1867   26.2717 H   0  0  0  0  0  0  0  0  0  0  0  0
  -11.0230  -24.3555   28.0366 H   0  0  0  0  0  0  0  0  0  0  0  0
  -13.4126  -24.9544   27.7377 H   0  0  0  0  0  0  0  0  0  0  0  0
  -14.6435  -24.1772   25.7234 H   0  0  0  0  0  0  0  0  0  0  0  0
  -14.0650  -23.0567   23.2537 H   0  0  0  0  0  0  0  0  0  0  0  0
  -14.5493  -27.2347   20.1118 H   0  0  0  0  0  0  0  0  0  0  0  0
  -13.5797  -28.1164   19.0124 H   0  0  0  0  0  0  0  0  0  0  0  0
  -15.8079  -29.0039   18.8297 H   0  0  0  0  0  0  0  0  0  0  0  0
  -16.5087  -27.3913   18.5282 H   0  0  0  0  0  0  0  0  0  0  0  0
  -15.8106  -28.0930   16.2905 H   0  0  0  0  0  0  0  0  0  0  0  0
  -14.2913  -28.7789   16.9251 H   0  0  0  0  0  0  0  0  0  0  0  0
  -13.7534  -26.5033   16.3736 H   0  0  0  0  0  0  0  0  0  0  0  0
  -15.2538  -25.8897   17.0050 H   0  0  0  0  0  0  0  0  0  0  0  0
  1  2  1  0
  2  3  1  0
  3  4  1  0
  4  5  2  0
  5  6  1  0
  6  7  2  0
  7  8  1  0
  8  9  2  0
  9 10  1  0
 10 11  2  0
 11 12  1  0
  2 13  1  0
 13 14  2  0
 13 15  1  0
 15 16  1  0
 16 17  1  0
 17 18  1  0
 18 19  1  0
 12  4  1  0
 19 15  1  0
 11  6  1  0
  1 20  1  0
  1 21  1  0
  1 22  1  0
  2 23  1  0
  7 24  1  0
  8 25  1  0
  9 26  1  0
 10 27  1  0
 12 28  1  0
 16 29  1  0
 16 30  1  0
 17 31  1  0
 17 32  1  0
 18 33  1  0
 18 34  1  0
 19 35  1  0
 19 36  1  0
M  END
>  <Energy>  (531) 
402.4728428082488

>  <compound_id>  (531) 
9237

>  <target_id>  (531) 
1

>  <reference_id>  (531) 
52

>  <inspiration_ids>  (531) 
[52, 30]

>  <energy_score>  (531) 
358.4290465859051

>  <distance_score>  (531) 
6.6854115908930805

>  <path>  (531) 
/opt/xchem-fragalysis-2/maxwin/BulkDock/SCRATCH/511014/C9237-P52/C9237-P52.minimised.mol

>  <scratch_subdir>  (531) 
/opt/xchem-fragalysis-2/maxwin/BulkDock/SCRATCH/511014/C9237-P52

>  <fragmenstein_runtime>  (531) 
9.60657286643982

>  <fragmenstein_outcome>  (531) 
too moved

>  <fragmenstein_mode>  (531) 
expansion

>  <fragmenstein_error>  (531) 


$$$$
C9237-P30
     RDKit          3D

 36 38  0  0  0  0  0  0  0  0999 V2000
  -12.7779  -22.8267   20.8189 C   0  0  0  0  0  0  0  0  0  0  0  0
  -13.9168  -22.5137   19.9032 C   0  0  0  0  0  0  0  0  0  0  0  0
  -14.9319  -20.9947   20.6892 S   0  0  0  0  0  0  0  0  0  0  0  0
  -14.8604  -21.2747   22.4012 C   0  0  0  0  0  0  0  0  0  0  0  0
  -15.4952  -22.1781   23.1166 N   0  0  0  0  0  0  0  0  0  0  0  0
  -14.5793  -22.5410   24.0776 C   0  0  0  0  0  0  0  0  0  0  0  0
  -14.5191  -23.6452   24.9474 C   0  0  0  0  0  0  0  0  0  0  0  0
  -13.3916  -23.8249   25.7640 C   0  0  0  0  0  0  0  0  0  0  0  0
  -12.4153  -22.8545   25.8142 C   0  0  0  0  0  0  0  0  0  0  0  0
  -12.4376  -21.7919   24.8961 C   0  0  0  0  0  0  0  0  0  0  0  0
  -13.4957  -21.6901   24.0248 C   0  0  0  0  0  0  0  0  0  0  0  0
  -13.8064  -20.7534   23.0825 N   0  0  0  0  0  0  0  0  0  0  0  0
  -15.0400  -23.7534   19.3803 C   0  0  0  0  0  0  0  0  0  0  0  0
  -16.2132  -23.4912   19.5420 O   0  0  0  0  0  0  0  0  0  0  0  0
  -14.4118  -24.9606   18.9160 N   0  0  0  0  0  0  0  0  0  0  0  0
  -14.2461  -24.9253   17.4206 C   0  0  0  0  0  0  0  0  0  0  0  0
  -13.5252  -26.1296   16.8534 C   0  0  0  0  0  0  0  0  0  0  0  0
  -14.0390  -27.1613   17.7891 C   0  0  0  0  0  0  0  0  0  0  0  0
  -14.9903  -26.3038   18.5924 C   0  0  0  0  0  0  0  0  0  0  0  0
  -13.0639  -22.8149   21.8501 H   0  0  0  0  0  0  0  0  0  0  0  0
  -12.4096  -23.8284   20.6109 H   0  0  0  0  0  0  0  0  0  0  0  0
  -11.9824  -22.0771   20.7547 H   0  0  0  0  0  0  0  0  0  0  0  0
  -13.4054  -22.1220   19.0383 H   0  0  0  0  0  0  0  0  0  0  0  0
  -15.3387  -24.3545   24.9512 H   0  0  0  0  0  0  0  0  0  0  0  0
  -13.2801  -24.6939   26.3983 H   0  0  0  0  0  0  0  0  0  0  0  0
  -11.6502  -22.9262   26.5829 H   0  0  0  0  0  0  0  0  0  0  0  0
  -11.7801  -20.9430   24.9341 H   0  0  0  0  0  0  0  0  0  0  0  0
  -13.1885  -20.0431   22.7280 H   0  0  0  0  0  0  0  0  0  0  0  0
  -13.7116  -24.0208   17.1890 H   0  0  0  0  0  0  0  0  0  0  0  0
  -15.2189  -24.7611   16.9193 H   0  0  0  0  0  0  0  0  0  0  0  0
  -13.7983  -26.3112   15.8099 H   0  0  0  0  0  0  0  0  0  0  0  0
  -12.4366  -26.0511   16.9149 H   0  0  0  0  0  0  0  0  0  0  0  0
  -13.2341  -27.5607   18.4155 H   0  0  0  0  0  0  0  0  0  0  0  0
  -14.5438  -27.9948   17.2935 H   0  0  0  0  0  0  0  0  0  0  0  0
  -16.0027  -26.2186   18.1618 H   0  0  0  0  0  0  0  0  0  0  0  0
  -15.1628  -26.7864   19.5634 H   0  0  0  0  0  0  0  0  0  0  0  0
  1  2  1  0
  2  3  1  0
  3  4  1  0
  4  5  2  0
  5  6  1  0
  6  7  2  0
  7  8  1  0
  8  9  2  0
  9 10  1  0
 10 11  2  0
 11 12  1  0
  2 13  1  0
 13 14  2  0
 13 15  1  0
 15 16  1  0
 16 17  1  0
 17 18  1  0
 18 19  1  0
 12  4  1  0
 19 15  1  0
 11  6  1  0
  1 20  1  0
  1 21  1  0
  1 22  1  0
  2 23  1  0
  7 24  1  0
  8 25  1  0
  9 26  1  0
 10 27  1  0
 12 28  1  0
 16 29  1  0
 16 30  1  0
 17 31  1  0
 17 32  1  0
 18 33  1  0
 18 34  1  0
 19 35  1  0
 19 36  1  0
M  END
>  <Energy>  (532) 
116.07947187048117

>  <compound_id>  (532) 
9237

>  <target_id>  (532) 
1

>  <reference_id>  (532) 
30

>  <inspiration_ids>  (532) 
[52, 30]

>  <energy_score>  (532) 
72.03567564814284

>  <distance_score>  (532) 
7.796666351441334

>  <path>  (532) 
/opt/xchem-fragalysis-2/maxwin/BulkDock/SCRATCH/511014/C9237-P30/C9237-P30.minimised.mol

>  <scratch_subdir>  (532) 
/opt/xchem-fragalysis-2/maxwin/BulkDock/SCRATCH/511014/C9237-P30

>  <fragmenstein_runtime>  (532) 
13.163971900939941

>  <fragmenstein_outcome>  (532) 
too moved

>  <fragmenstein_mode>  (532) 
expansion

>  <fragmenstein_error>  (532) 


$$$$
C9238-P52
     RDKit          3D

 53 55  0  0  0  0  0  0  0  0999 V2000
   -4.4391  -25.3373   36.5943 C   0  0  0  0  0  0  0  0  0  0  0  0
   -4.9159  -24.1709   35.9057 C   0  0  0  0  0  0  0  0  0  0  0  0
   -5.2565  -24.5998   34.4261 C   0  0  0  0  0  0  0  0  0  0  0  0
   -6.8214  -23.7066   33.3643 C   0  0  0  0  0  0  0  0  0  0  0  0
   -8.0125  -24.5850   32.2798 N   0  0  0  0  0  0  0  0  0  0  0  0
   -9.6450  -24.2877   31.6597 S   0  0  0  0  0  0  0  0  0  0  0  0
   -9.9115  -22.8780   31.5436 O   0  0  0  0  0  0  0  0  0  0  0  0
  -10.4287  -25.0965   32.5761 O   0  0  0  0  0  0  0  0  0  0  0  0
  -10.3022  -25.0990   29.8002 C   0  0  0  0  0  0  0  0  0  0  0  0
  -11.3423  -26.0491   29.8917 C   0  0  0  0  0  0  0  0  0  0  0  0
  -12.0700  -26.5905   28.7237 C   0  0  0  0  0  0  0  0  0  0  0  0
  -11.8054  -26.2438   27.3509 C   0  0  0  0  0  0  0  0  0  0  0  0
  -12.3080  -26.7517   26.0466 N   0  0  0  0  0  0  0  0  0  0  0  0
  -11.5158  -26.2658   25.0589 C   0  0  0  0  0  0  0  0  0  0  0  0
  -10.6168  -27.2782   23.2835 S   0  0  0  0  0  0  0  0  0  0  0  0
  -10.6862  -28.2679   21.0036 C   0  0  0  0  0  0  0  0  0  0  0  0
  -10.7168  -30.1294   20.8695 C   0  0  0  0  0  0  0  0  0  0  0  0
  -11.5051  -28.0001   19.1453 C   0  0  0  0  0  0  0  0  0  0  0  0
  -10.7278  -27.4943   18.3627 O   0  0  0  0  0  0  0  0  0  0  0  0
  -12.9224  -28.3287   18.9603 N   0  0  0  0  0  0  0  0  0  0  0  0
  -13.0778  -29.7500   18.4313 C   0  0  0  0  0  0  0  0  0  0  0  0
  -14.5327  -30.1456   18.2282 C   0  0  0  0  0  0  0  0  0  0  0  0
  -15.1237  -28.8324   17.8760 C   0  0  0  0  0  0  0  0  0  0  0  0
  -13.8514  -28.0471   17.8226 C   0  0  0  0  0  0  0  0  0  0  0  0
  -10.7529  -25.2107   25.7519 N   0  0  0  0  0  0  0  0  0  0  0  0
  -10.8246  -25.2711   27.1982 C   0  0  0  0  0  0  0  0  0  0  0  0
  -10.1244  -24.6137   28.4383 C   0  0  0  0  0  0  0  0  0  0  0  0
   -3.4475  -25.4261   37.0134 H   0  0  0  0  0  0  0  0  0  0  0  0
   -5.2350  -25.5429   37.2993 H   0  0  0  0  0  0  0  0  0  0  0  0
   -4.5318  -26.0918   35.8957 H   0  0  0  0  0  0  0  0  0  0  0  0
   -4.1432  -23.3961   35.8993 H   0  0  0  0  0  0  0  0  0  0  0  0
   -5.7899  -23.8089   36.4435 H   0  0  0  0  0  0  0  0  0  0  0  0
   -5.0916  -25.6677   34.2659 H   0  0  0  0  0  0  0  0  0  0  0  0
   -4.2812  -24.1474   34.0737 H   0  0  0  0  0  0  0  0  0  0  0  0
   -7.6330  -23.4170   34.0730 H   0  0  0  0  0  0  0  0  0  0  0  0
   -6.4253  -22.8802   32.8290 H   0  0  0  0  0  0  0  0  0  0  0  0
   -8.1114  -25.4071   32.8949 H   0  0  0  0  0  0  0  0  0  0  0  0
  -11.6439  -26.4116   30.8741 H   0  0  0  0  0  0  0  0  0  0  0  0
  -12.8370  -27.3422   28.9064 H   0  0  0  0  0  0  0  0  0  0  0  0
   -9.9772  -27.5015   20.8113 H   0  0  0  0  0  0  0  0  0  0  0  0
  -11.5967  -30.6114   21.3305 H   0  0  0  0  0  0  0  0  0  0  0  0
  -10.8741  -30.3699   19.8219 H   0  0  0  0  0  0  0  0  0  0  0  0
   -9.8912  -30.6419   21.3770 H   0  0  0  0  0  0  0  0  0  0  0  0
  -12.4489  -29.9062   17.5383 H   0  0  0  0  0  0  0  0  0  0  0  0
  -12.6877  -30.4472   19.1715 H   0  0  0  0  0  0  0  0  0  0  0  0
  -14.9761  -30.5401   19.1491 H   0  0  0  0  0  0  0  0  0  0  0  0
  -14.6397  -30.9002   17.4433 H   0  0  0  0  0  0  0  0  0  0  0  0
  -15.6662  -28.8312   16.9272 H   0  0  0  0  0  0  0  0  0  0  0  0
  -15.7892  -28.4712   18.6672 H   0  0  0  0  0  0  0  0  0  0  0  0
  -13.3248  -28.1020   16.8538 H   0  0  0  0  0  0  0  0  0  0  0  0
  -14.0905  -26.9792   17.9162 H   0  0  0  0  0  0  0  0  0  0  0  0
  -10.1294  -24.6116   25.2370 H   0  0  0  0  0  0  0  0  0  0  0  0
   -9.4888  -23.7562   28.2531 H   0  0  0  0  0  0  0  0  0  0  0  0
  1  2  1  0
  2  3  1  0
  3  4  1  0
  4  5  1  0
  5  6  1  0
  6  7  2  0
  6  8  2  0
  6  9  1  0
  9 10  2  0
 10 11  1  0
 11 12  2  0
 12 13  1  0
 13 14  2  0
 14 15  1  0
 15 16  1  0
 16 17  1  0
 16 18  1  0
 18 19  2  0
 18 20  1  0
 20 21  1  0
 21 22  1  0
 22 23  1  0
 23 24  1  0
 14 25  1  0
 25 26  1  0
 26 27  2  0
 27  9  1  0
 26 12  1  0
 24 20  1  0
  1 28  1  0
  1 29  1  0
  1 30  1  0
  2 31  1  0
  2 32  1  0
  3 33  1  0
  3 34  1  0
  4 35  1  0
  4 36  1  0
  5 37  1  0
 10 38  1  0
 11 39  1  0
 16 40  1  0
 17 41  1  0
 17 42  1  0
 17 43  1  0
 21 44  1  0
 21 45  1  0
 22 46  1  0
 22 47  1  0
 23 48  1  0
 23 49  1  0
 24 50  1  0
 24 51  1  0
 25 52  1  0
 27 53  1  0
M  END
>  <Energy>  (533) 
662.64571381806911

>  <compound_id>  (533) 
9238

>  <target_id>  (533) 
1

>  <reference_id>  (533) 
52

>  <inspiration_ids>  (533) 
[52, 30]

>  <energy_score>  (533) 
649.3041848332572

>  <distance_score>  (533) 
6.069474007368632

>  <path>  (533) 
/opt/xchem-fragalysis-2/maxwin/BulkDock/SCRATCH/511014/C9238-P52/C9238-P52.minimised.mol

>  <scratch_subdir>  (533) 
/opt/xchem-fragalysis-2/maxwin/BulkDock/SCRATCH/511014/C9238-P52

>  <fragmenstein_runtime>  (533) 
36.98332476615906

>  <fragmenstein_outcome>  (533) 
too moved

>  <fragmenstein_mode>  (533) 
expansion

>  <fragmenstein_error>  (533) 


$$$$
C9238-P30
     RDKit          3D

 53 55  0  0  0  0  0  0  0  0999 V2000
   -6.5015  -22.8994   34.1101 C   0  0  0  0  0  0  0  0  0  0  0  0
   -8.0330  -22.6061   34.1068 C   0  0  0  0  0  0  0  0  0  0  0  0
   -9.3235  -23.5588   32.8701 C   0  0  0  0  0  0  0  0  0  0  0  0
  -10.8794  -23.1312   31.9180 C   0  0  0  0  0  0  0  0  0  0  0  0
  -10.9583  -22.3615   30.0652 N   0  0  0  0  0  0  0  0  0  0  0  0
  -12.1136  -22.0310   28.9796 S   0  0  0  0  0  0  0  0  0  0  0  0
  -12.8053  -20.8506   29.4032 O   0  0  0  0  0  0  0  0  0  0  0  0
  -12.4882  -23.3763   28.9946 O   0  0  0  0  0  0  0  0  0  0  0  0
  -12.1697  -22.3286   27.2160 C   0  0  0  0  0  0  0  0  0  0  0  0
  -11.6956  -21.3204   26.5384 C   0  0  0  0  0  0  0  0  0  0  0  0
  -12.0148  -20.9267   25.2235 C   0  0  0  0  0  0  0  0  0  0  0  0
  -12.9713  -21.6011   24.6220 C   0  0  0  0  0  0  0  0  0  0  0  0
  -13.6953  -21.1594   23.6031 N   0  0  0  0  0  0  0  0  0  0  0  0
  -13.6651  -22.2805   22.9890 C   0  0  0  0  0  0  0  0  0  0  0  0
  -12.6883  -22.1564   21.5355 S   0  0  0  0  0  0  0  0  0  0  0  0
  -13.9007  -22.2244   20.1399 C   0  0  0  0  0  0  0  0  0  0  0  0
  -15.2314  -21.5457   20.5992 C   0  0  0  0  0  0  0  0  0  0  0  0
  -13.7696  -23.7738   19.4688 C   0  0  0  0  0  0  0  0  0  0  0  0
  -12.9026  -24.4115   20.0088 O   0  0  0  0  0  0  0  0  0  0  0  0
  -14.5862  -24.0959   18.3359 N   0  0  0  0  0  0  0  0  0  0  0  0
  -15.8656  -24.7845   18.7765 C   0  0  0  0  0  0  0  0  0  0  0  0
  -16.7870  -25.0063   17.5834 C   0  0  0  0  0  0  0  0  0  0  0  0
  -15.7799  -25.3328   16.5370 C   0  0  0  0  0  0  0  0  0  0  0  0
  -14.5477  -25.2721   17.3994 C   0  0  0  0  0  0  0  0  0  0  0  0
  -13.7920  -23.2956   23.9672 N   0  0  0  0  0  0  0  0  0  0  0  0
  -13.2259  -22.8505   25.1176 C   0  0  0  0  0  0  0  0  0  0  0  0
  -12.8045  -23.2989   26.4071 C   0  0  0  0  0  0  0  0  0  0  0  0
   -6.1574  -23.5543   33.3113 H   0  0  0  0  0  0  0  0  0  0  0  0
   -5.9547  -21.9536   34.0050 H   0  0  0  0  0  0  0  0  0  0  0  0
   -6.1561  -23.3132   35.0533 H   0  0  0  0  0  0  0  0  0  0  0  0
   -8.0385  -21.5132   33.8486 H   0  0  0  0  0  0  0  0  0  0  0  0
   -8.3436  -22.4395   35.1385 H   0  0  0  0  0  0  0  0  0  0  0  0
   -8.8681  -24.3764   32.3124 H   0  0  0  0  0  0  0  0  0  0  0  0
   -9.7601  -24.4136   33.3363 H   0  0  0  0  0  0  0  0  0  0  0  0
  -11.2297  -24.1043   32.0230 H   0  0  0  0  0  0  0  0  0  0  0  0
  -11.1830  -22.2859   32.3869 H   0  0  0  0  0  0  0  0  0  0  0  0
  -10.5933  -23.1427   29.5046 H   0  0  0  0  0  0  0  0  0  0  0  0
  -10.8365  -20.9792   27.0724 H   0  0  0  0  0  0  0  0  0  0  0  0
  -11.5813  -20.2172   24.5578 H   0  0  0  0  0  0  0  0  0  0  0  0
  -13.4113  -21.5635   19.4237 H   0  0  0  0  0  0  0  0  0  0  0  0
  -15.2096  -20.4775   20.3459 H   0  0  0  0  0  0  0  0  0  0  0  0
  -16.1179  -22.0095   20.1545 H   0  0  0  0  0  0  0  0  0  0  0  0
  -15.4544  -21.5597   21.6671 H   0  0  0  0  0  0  0  0  0  0  0  0
  -16.3841  -24.1108   19.4657 H   0  0  0  0  0  0  0  0  0  0  0  0
  -15.6691  -25.7122   19.3378 H   0  0  0  0  0  0  0  0  0  0  0  0
  -17.3401  -24.0965   17.3265 H   0  0  0  0  0  0  0  0  0  0  0  0
  -17.5056  -25.8099   17.7675 H   0  0  0  0  0  0  0  0  0  0  0  0
  -15.9232  -26.3144   16.0781 H   0  0  0  0  0  0  0  0  0  0  0  0
  -15.7642  -24.5708   15.7507 H   0  0  0  0  0  0  0  0  0  0  0  0
  -14.2958  -26.2111   17.9219 H   0  0  0  0  0  0  0  0  0  0  0  0
  -13.6789  -25.1088   16.7537 H   0  0  0  0  0  0  0  0  0  0  0  0
  -13.7936  -24.2805   23.8270 H   0  0  0  0  0  0  0  0  0  0  0  0
  -13.0551  -24.2765   26.7791 H   0  0  0  0  0  0  0  0  0  0  0  0
  1  2  1  0
  2  3  1  0
  3  4  1  0
  4  5  1  0
  5  6  1  0
  6  7  2  0
  6  8  2  0
  6  9  1  0
  9 10  2  0
 10 11  1  0
 11 12  2  0
 12 13  1  0
 13 14  2  0
 14 15  1  0
 15 16  1  0
 16 17  1  0
 16 18  1  0
 18 19  2  0
 18 20  1  0
 20 21  1  0
 21 22  1  0
 22 23  1  0
 23 24  1  0
 14 25  1  0
 25 26  1  0
 26 27  2  0
 27  9  1  0
 26 12  1  0
 24 20  1  0
  1 28  1  0
  1 29  1  0
  1 30  1  0
  2 31  1  0
  2 32  1  0
  3 33  1  0
  3 34  1  0
  4 35  1  0
  4 36  1  0
  5 37  1  0
 10 38  1  0
 11 39  1  0
 16 40  1  0
 17 41  1  0
 17 42  1  0
 17 43  1  0
 21 44  1  0
 21 45  1  0
 22 46  1  0
 22 47  1  0
 23 48  1  0
 23 49  1  0
 24 50  1  0
 24 51  1  0
 25 52  1  0
 27 53  1  0
M  END
>  <Energy>  (534) 
445.58946579178888

>  <compound_id>  (534) 
9238

>  <target_id>  (534) 
1

>  <reference_id>  (534) 
30

>  <inspiration_ids>  (534) 
[52, 30]

>  <energy_score>  (534) 
432.2479368069787

>  <distance_score>  (534) 
6.998159131398424

>  <path>  (534) 
/opt/xchem-fragalysis-2/maxwin/BulkDock/SCRATCH/511014/C9238-P30/C9238-P30.minimised.mol

>  <scratch_subdir>  (534) 
/opt/xchem-fragalysis-2/maxwin/BulkDock/SCRATCH/511014/C9238-P30

>  <fragmenstein_runtime>  (534) 
28.282755613327026

>  <fragmenstein_outcome>  (534) 
too moved

>  <fragmenstein_mode>  (534) 
expansion

>  <fragmenstein_error>  (534) 


$$$$
C9239-P52
     RDKit          3D

 39 41  0  0  0  0  0  0  0  0999 V2000
  -12.3249  -26.2622   29.2965 C   0  0  0  0  0  0  0  0  0  0  0  0
  -12.4164  -25.1854   28.2553 C   0  0  0  0  0  0  0  0  0  0  0  0
  -11.6727  -24.0046   28.3820 C   0  0  0  0  0  0  0  0  0  0  0  0
  -11.6982  -23.0199   27.3848 C   0  0  0  0  0  0  0  0  0  0  0  0
  -12.4827  -23.2764   26.2504 C   0  0  0  0  0  0  0  0  0  0  0  0
  -12.7390  -22.5540   25.1053 N   0  0  0  0  0  0  0  0  0  0  0  0
  -13.5110  -23.3195   24.2500 C   0  0  0  0  0  0  0  0  0  0  0  0
  -13.2043  -23.0130   22.4633 S   0  0  0  0  0  0  0  0  0  0  0  0
  -13.5682  -24.7968   20.8665 C   0  0  0  0  0  0  0  0  0  0  0  0
  -14.1484  -25.8965   21.7455 C   0  0  0  0  0  0  0  0  0  0  0  0
  -13.5160  -25.6208   19.0444 C   0  0  0  0  0  0  0  0  0  0  0  0
  -13.0897  -26.7271   19.1156 O   0  0  0  0  0  0  0  0  0  0  0  0
  -14.0211  -25.0426   17.7011 N   0  0  0  0  0  0  0  0  0  0  0  0
  -15.5512  -25.3173   17.5024 C   0  0  0  0  0  0  0  0  0  0  0  0
  -16.1294  -25.1334   16.0837 C   0  0  0  0  0  0  0  0  0  0  0  0
  -14.9047  -25.0070   15.2693 C   0  0  0  0  0  0  0  0  0  0  0  0
  -14.0002  -25.6003   16.2884 C   0  0  0  0  0  0  0  0  0  0  0  0
  -13.9250  -24.4119   24.8706 N   0  0  0  0  0  0  0  0  0  0  0  0
  -13.2551  -24.4213   26.0933 C   0  0  0  0  0  0  0  0  0  0  0  0
  -13.2194  -25.3928   27.1118 C   0  0  0  0  0  0  0  0  0  0  0  0
  -13.3219  -26.6417   29.5430 H   0  0  0  0  0  0  0  0  0  0  0  0
  -11.7107  -27.0883   28.9249 H   0  0  0  0  0  0  0  0  0  0  0  0
  -11.8745  -25.8873   30.2214 H   0  0  0  0  0  0  0  0  0  0  0  0
  -11.0543  -23.8364   29.2634 H   0  0  0  0  0  0  0  0  0  0  0  0
  -11.1306  -22.1000   27.4896 H   0  0  0  0  0  0  0  0  0  0  0  0
  -12.3558  -21.6490   24.8719 H   0  0  0  0  0  0  0  0  0  0  0  0
  -12.5625  -24.6240   20.4414 H   0  0  0  0  0  0  0  0  0  0  0  0
  -14.0595  -26.5298   20.9667 H   0  0  0  0  0  0  0  0  0  0  0  0
  -14.0112  -25.9335   22.8275 H   0  0  0  0  0  0  0  0  0  0  0  0
  -15.1434  -26.2382   22.0590 H   0  0  0  0  0  0  0  0  0  0  0  0
  -15.7845  -26.3233   17.8855 H   0  0  0  0  0  0  0  0  0  0  0  0
  -16.1312  -24.6010   18.0622 H   0  0  0  0  0  0  0  0  0  0  0  0
  -16.7207  -26.0149   15.8084 H   0  0  0  0  0  0  0  0  0  0  0  0
  -16.7912  -24.2690   15.9896 H   0  0  0  0  0  0  0  0  0  0  0  0
  -14.9504  -25.5955   14.3485 H   0  0  0  0  0  0  0  0  0  0  0  0
  -14.6390  -23.9868   15.0045 H   0  0  0  0  0  0  0  0  0  0  0  0
  -14.2021  -26.6896   16.3809 H   0  0  0  0  0  0  0  0  0  0  0  0
  -12.9755  -25.7062   15.9338 H   0  0  0  0  0  0  0  0  0  0  0  0
  -13.7992  -26.3024   26.9918 H   0  0  0  0  0  0  0  0  0  0  0  0
  1  2  1  0
  2  3  2  0
  3  4  1  0
  4  5  2  0
  5  6  1  0
  6  7  1  0
  7  8  1  0
  8  9  1  0
  9 10  1  0
  9 11  1  0
 11 12  2  0
 11 13  1  0
 13 14  1  0
 14 15  1  0
 15 16  1  0
 16 17  1  0
  7 18  2  0
 18 19  1  0
 19 20  2  0
 20  2  1  0
 19  5  1  0
 17 13  1  0
  1 21  1  0
  1 22  1  0
  1 23  1  0
  3 24  1  0
  4 25  1  0
  6 26  1  0
  9 27  1  0
 10 28  1  0
 10 29  1  0
 10 30  1  0
 14 31  1  0
 14 32  1  0
 15 33  1  0
 15 34  1  0
 16 35  1  0
 16 36  1  0
 17 37  1  0
 17 38  1  0
 20 39  1  0
M  END
>  <Energy>  (535) 
391.18675842445811

>  <compound_id>  (535) 
9239

>  <target_id>  (535) 
1

>  <reference_id>  (535) 
52

>  <inspiration_ids>  (535) 
[52, 30]

>  <energy_score>  (535) 
344.22475781934327

>  <distance_score>  (535) 
5.7862806674944265

>  <path>  (535) 
/opt/xchem-fragalysis-2/maxwin/BulkDock/SCRATCH/511014/C9239-P52/C9239-P52.minimised.mol

>  <scratch_subdir>  (535) 
/opt/xchem-fragalysis-2/maxwin/BulkDock/SCRATCH/511014/C9239-P52

>  <fragmenstein_runtime>  (535) 
11.397892475128174

>  <fragmenstein_outcome>  (535) 
too moved

>  <fragmenstein_mode>  (535) 
expansion

>  <fragmenstein_error>  (535) 


$$$$
C9239-P30
     RDKit          3D

 39 41  0  0  0  0  0  0  0  0999 V2000
  -13.6077  -26.9742   26.2445 C   0  0  0  0  0  0  0  0  0  0  0  0
  -13.3842  -25.5191   25.9607 C   0  0  0  0  0  0  0  0  0  0  0  0
  -12.2782  -24.8380   26.4841 C   0  0  0  0  0  0  0  0  0  0  0  0
  -12.0889  -23.4518   26.3758 C   0  0  0  0  0  0  0  0  0  0  0  0
  -12.7808  -22.8953   25.3079 C   0  0  0  0  0  0  0  0  0  0  0  0
  -12.4891  -21.8909   24.3855 N   0  0  0  0  0  0  0  0  0  0  0  0
  -13.0556  -22.3381   23.2136 C   0  0  0  0  0  0  0  0  0  0  0  0
  -12.1984  -22.3036   21.6580 S   0  0  0  0  0  0  0  0  0  0  0  0
  -12.7126  -23.6040   20.0769 C   0  0  0  0  0  0  0  0  0  0  0  0
  -11.8152  -24.5845   20.4086 C   0  0  0  0  0  0  0  0  0  0  0  0
  -13.8719  -24.9313   19.2825 C   0  0  0  0  0  0  0  0  0  0  0  0
  -14.0096  -25.9196   19.9545 O   0  0  0  0  0  0  0  0  0  0  0  0
  -14.5514  -24.5806   18.0205 N   0  0  0  0  0  0  0  0  0  0  0  0
  -13.7613  -25.0871   16.8232 C   0  0  0  0  0  0  0  0  0  0  0  0
  -13.9805  -26.5751   16.5410 C   0  0  0  0  0  0  0  0  0  0  0  0
  -15.3975  -26.7104   16.9326 C   0  0  0  0  0  0  0  0  0  0  0  0
  -15.6729  -25.2707   17.2669 C   0  0  0  0  0  0  0  0  0  0  0  0
  -14.1957  -22.8847   23.5543 N   0  0  0  0  0  0  0  0  0  0  0  0
  -13.8799  -23.5163   24.7285 C   0  0  0  0  0  0  0  0  0  0  0  0
  -14.2789  -24.8018   25.1534 C   0  0  0  0  0  0  0  0  0  0  0  0
  -14.1797  -27.0953   27.1685 H   0  0  0  0  0  0  0  0  0  0  0  0
  -14.1599  -27.4528   25.4290 H   0  0  0  0  0  0  0  0  0  0  0  0
  -12.6534  -27.5015   26.3464 H   0  0  0  0  0  0  0  0  0  0  0  0
  -11.4706  -25.3972   26.9528 H   0  0  0  0  0  0  0  0  0  0  0  0
  -11.2536  -22.9826   26.8719 H   0  0  0  0  0  0  0  0  0  0  0  0
  -11.7338  -21.2293   24.4029 H   0  0  0  0  0  0  0  0  0  0  0  0
  -12.6227  -22.7879   19.3497 H   0  0  0  0  0  0  0  0  0  0  0  0
  -12.4343  -24.9394   21.1523 H   0  0  0  0  0  0  0  0  0  0  0  0
  -11.7939  -25.2652   19.5610 H   0  0  0  0  0  0  0  0  0  0  0  0
  -10.8272  -24.3788   20.6481 H   0  0  0  0  0  0  0  0  0  0  0  0
  -14.0070  -24.4827   15.9362 H   0  0  0  0  0  0  0  0  0  0  0  0
  -12.6992  -25.0931   16.9623 H   0  0  0  0  0  0  0  0  0  0  0  0
  -13.3392  -27.2058   17.1675 H   0  0  0  0  0  0  0  0  0  0  0  0
  -13.7874  -26.8206   15.4925 H   0  0  0  0  0  0  0  0  0  0  0  0
  -16.0436  -27.0871   16.1353 H   0  0  0  0  0  0  0  0  0  0  0  0
  -15.5077  -27.3576   17.8092 H   0  0  0  0  0  0  0  0  0  0  0  0
  -16.5453  -25.2486   17.9306 H   0  0  0  0  0  0  0  0  0  0  0  0
  -15.9872  -24.6653   16.3998 H   0  0  0  0  0  0  0  0  0  0  0  0
  -15.1278  -25.2854   24.6825 H   0  0  0  0  0  0  0  0  0  0  0  0
  1  2  1  0
  2  3  2  0
  3  4  1  0
  4  5  2  0
  5  6  1  0
  6  7  1  0
  7  8  1  0
  8  9  1  0
  9 10  1  0
  9 11  1  0
 11 12  2  0
 11 13  1  0
 13 14  1  0
 14 15  1  0
 15 16  1  0
 16 17  1  0
  7 18  2  0
 18 19  1  0
 19 20  2  0
 20  2  1  0
 19  5  1  0
 17 13  1  0
  1 21  1  0
  1 22  1  0
  1 23  1  0
  3 24  1  0
  4 25  1  0
  6 26  1  0
  9 27  1  0
 10 28  1  0
 10 29  1  0
 10 30  1  0
 14 31  1  0
 14 32  1  0
 15 33  1  0
 15 34  1  0
 16 35  1  0
 16 36  1  0
 17 37  1  0
 17 38  1  0
 20 39  1  0
M  END
>  <Energy>  (536) 
285.52637407642004

>  <compound_id>  (536) 
9239

>  <target_id>  (536) 
1

>  <reference_id>  (536) 
30

>  <inspiration_ids>  (536) 
[52, 30]

>  <energy_score>  (536) 
238.5643734713051

>  <distance_score>  (536) 
6.809764747967202

>  <path>  (536) 
/opt/xchem-fragalysis-2/maxwin/BulkDock/SCRATCH/511014/C9239-P30/C9239-P30.minimised.mol

>  <scratch_subdir>  (536) 
/opt/xchem-fragalysis-2/maxwin/BulkDock/SCRATCH/511014/C9239-P30

>  <fragmenstein_runtime>  (536) 
15.678574323654175

>  <fragmenstein_outcome>  (536) 
too moved

>  <fragmenstein_mode>  (536) 
expansion

>  <fragmenstein_error>  (536) 


$$$$
C9240-P52
     RDKit          3D

 43 45  0  0  0  0  0  0  0  0999 V2000
  -11.9692  -26.2434   18.4029 C   0  0  0  0  0  0  0  0  0  0  0  0
  -12.6225  -24.7656   19.6420 C   0  0  0  0  0  0  0  0  0  0  0  0
  -12.2486  -22.7105   20.8758 S   0  0  0  0  0  0  0  0  0  0  0  0
  -12.6882  -22.4793   23.0368 C   0  0  0  0  0  0  0  0  0  0  0  0
  -12.0449  -21.5816   23.8273 N   0  0  0  0  0  0  0  0  0  0  0  0
  -12.0115  -22.1146   25.1855 C   0  0  0  0  0  0  0  0  0  0  0  0
  -11.6262  -21.7087   26.4953 C   0  0  0  0  0  0  0  0  0  0  0  0
  -11.3830  -22.6125   27.5482 C   0  0  0  0  0  0  0  0  0  0  0  0
  -11.5343  -23.9641   27.3216 C   0  0  0  0  0  0  0  0  0  0  0  0
  -12.0842  -24.3921   26.1141 C   0  0  0  0  0  0  0  0  0  0  0  0
  -12.4353  -23.4060   25.1658 C   0  0  0  0  0  0  0  0  0  0  0  0
  -13.4111  -23.3195   24.0855 N   0  0  0  0  0  0  0  0  0  0  0  0
  -14.7186  -23.1519   24.7571 C   0  0  0  0  0  0  0  0  0  0  0  0
  -15.3829  -24.4330   25.3669 C   0  0  0  0  0  0  0  0  0  0  0  0
  -14.8192  -25.0533   26.5712 C   0  0  0  0  0  0  0  0  0  0  0  0
  -14.4250  -25.6425   27.4925 N   0  0  0  0  0  0  0  0  0  0  0  0
  -13.6001  -25.7682   19.8129 C   0  0  0  0  0  0  0  0  0  0  0  0
  -14.0066  -25.8436   20.9492 O   0  0  0  0  0  0  0  0  0  0  0  0
  -14.0962  -26.5736   18.4205 N   0  0  0  0  0  0  0  0  0  0  0  0
  -15.1853  -25.7822   17.6894 C   0  0  0  0  0  0  0  0  0  0  0  0
  -15.3618  -26.4165   16.3215 C   0  0  0  0  0  0  0  0  0  0  0  0
  -15.4994  -27.8251   16.7785 C   0  0  0  0  0  0  0  0  0  0  0  0
  -15.1012  -27.6787   18.2497 C   0  0  0  0  0  0  0  0  0  0  0  0
  -12.2406  -27.2928   18.6456 H   0  0  0  0  0  0  0  0  0  0  0  0
  -10.9008  -26.3798   18.2856 H   0  0  0  0  0  0  0  0  0  0  0  0
  -12.3074  -26.0121   17.3701 H   0  0  0  0  0  0  0  0  0  0  0  0
  -13.1671  -24.1541   18.8926 H   0  0  0  0  0  0  0  0  0  0  0  0
  -11.4135  -20.6756   26.6795 H   0  0  0  0  0  0  0  0  0  0  0  0
  -11.0160  -22.2442   28.5021 H   0  0  0  0  0  0  0  0  0  0  0  0
  -11.2990  -24.6857   28.0993 H   0  0  0  0  0  0  0  0  0  0  0  0
  -12.2994  -25.4438   25.9524 H   0  0  0  0  0  0  0  0  0  0  0  0
  -14.5645  -22.4303   25.5227 H   0  0  0  0  0  0  0  0  0  0  0  0
  -15.4214  -22.6167   24.1213 H   0  0  0  0  0  0  0  0  0  0  0  0
  -16.4269  -24.1747   25.5865 H   0  0  0  0  0  0  0  0  0  0  0  0
  -15.4175  -25.2551   24.6451 H   0  0  0  0  0  0  0  0  0  0  0  0
  -14.7745  -24.7969   17.5006 H   0  0  0  0  0  0  0  0  0  0  0  0
  -16.1804  -25.7016   18.1200 H   0  0  0  0  0  0  0  0  0  0  0  0
  -14.4709  -26.2826   15.6981 H   0  0  0  0  0  0  0  0  0  0  0  0
  -16.2351  -26.0387   15.7834 H   0  0  0  0  0  0  0  0  0  0  0  0
  -16.5157  -28.2190   16.6823 H   0  0  0  0  0  0  0  0  0  0  0  0
  -14.8191  -28.4851   16.2295 H   0  0  0  0  0  0  0  0  0  0  0  0
  -14.5555  -28.6048   18.4442 H   0  0  0  0  0  0  0  0  0  0  0  0
  -15.9401  -27.6221   18.9568 H   0  0  0  0  0  0  0  0  0  0  0  0
  1  2  1  0
  2  3  1  0
  3  4  1  0
  4  5  2  0
  5  6  1  0
  6  7  2  0
  7  8  1  0
  8  9  2  0
  9 10  1  0
 10 11  2  0
 11 12  1  0
 12 13  1  0
 13 14  1  0
 14 15  1  0
 15 16  3  0
  2 17  1  0
 17 18  2  0
 17 19  1  0
 19 20  1  0
 20 21  1  0
 21 22  1  0
 22 23  1  0
 12  4  1  0
 23 19  1  0
 11  6  1  0
  1 24  1  0
  1 25  1  0
  1 26  1  0
  2 27  1  0
  7 28  1  0
  8 29  1  0
  9 30  1  0
 10 31  1  0
 13 32  1  0
 13 33  1  0
 14 34  1  0
 14 35  1  0
 20 36  1  0
 20 37  1  0
 21 38  1  0
 21 39  1  0
 22 40  1  0
 22 41  1  0
 23 42  1  0
 23 43  1  0
M  END
>  <Energy>  (537) 
491.6341201794707

>  <compound_id>  (537) 
9240

>  <target_id>  (537) 
1

>  <reference_id>  (537) 
52

>  <inspiration_ids>  (537) 
[52, 30]

>  <energy_score>  (537) 
439.476869657457

>  <distance_score>  (537) 
6.3805334731064125

>  <path>  (537) 
/opt/xchem-fragalysis-2/maxwin/BulkDock/SCRATCH/511014/C9240-P52/C9240-P52.minimised.mol

>  <scratch_subdir>  (537) 
/opt/xchem-fragalysis-2/maxwin/BulkDock/SCRATCH/511014/C9240-P52

>  <fragmenstein_runtime>  (537) 
10.764829158782959

>  <fragmenstein_outcome>  (537) 
too moved

>  <fragmenstein_mode>  (537) 
expansion

>  <fragmenstein_error>  (537) 


$$$$
C9240-P30
     RDKit          3D

 43 45  0  0  0  0  0  0  0  0999 V2000
  -12.2196  -20.7740   20.9020 C   0  0  0  0  0  0  0  0  0  0  0  0
  -12.3847  -22.2008   21.4376 C   0  0  0  0  0  0  0  0  0  0  0  0
  -13.3726  -22.1790   23.0867 S   0  0  0  0  0  0  0  0  0  0  0  0
  -12.8788  -22.5576   24.6238 C   0  0  0  0  0  0  0  0  0  0  0  0
  -12.3852  -21.6573   25.4304 N   0  0  0  0  0  0  0  0  0  0  0  0
  -12.2501  -22.3268   26.6009 C   0  0  0  0  0  0  0  0  0  0  0  0
  -11.9464  -21.9350   27.8666 C   0  0  0  0  0  0  0  0  0  0  0  0
  -11.0206  -22.7408   28.4371 C   0  0  0  0  0  0  0  0  0  0  0  0
  -10.5343  -23.8877   27.8008 C   0  0  0  0  0  0  0  0  0  0  0  0
  -11.2314  -24.4756   26.7435 C   0  0  0  0  0  0  0  0  0  0  0  0
  -12.2458  -23.6640   26.2959 C   0  0  0  0  0  0  0  0  0  0  0  0
  -13.2630  -23.6606   25.3734 N   0  0  0  0  0  0  0  0  0  0  0  0
  -14.1281  -24.7894   25.1124 C   0  0  0  0  0  0  0  0  0  0  0  0
  -15.6616  -24.7155   25.0073 C   0  0  0  0  0  0  0  0  0  0  0  0
  -16.2053  -23.3967   24.7087 C   0  0  0  0  0  0  0  0  0  0  0  0
  -16.7008  -22.3896   24.4216 N   0  0  0  0  0  0  0  0  0  0  0  0
  -12.7960  -23.6202   20.2998 C   0  0  0  0  0  0  0  0  0  0  0  0
  -12.1249  -24.5459   20.5770 O   0  0  0  0  0  0  0  0  0  0  0  0
  -13.8166  -23.7002   18.9353 N   0  0  0  0  0  0  0  0  0  0  0  0
  -15.2218  -24.2407   19.2981 C   0  0  0  0  0  0  0  0  0  0  0  0
  -16.2092  -24.5855   18.1420 C   0  0  0  0  0  0  0  0  0  0  0  0
  -15.2730  -24.8756   17.0421 C   0  0  0  0  0  0  0  0  0  0  0  0
  -13.9847  -24.8052   17.8197 C   0  0  0  0  0  0  0  0  0  0  0  0
  -12.6740  -20.0203   21.5520 H   0  0  0  0  0  0  0  0  0  0  0  0
  -11.1590  -20.5080   20.8536 H   0  0  0  0  0  0  0  0  0  0  0  0
  -12.6706  -20.6546   19.9166 H   0  0  0  0  0  0  0  0  0  0  0  0
  -11.3831  -22.4372   21.7748 H   0  0  0  0  0  0  0  0  0  0  0  0
  -12.2596  -21.0316   28.3456 H   0  0  0  0  0  0  0  0  0  0  0  0
  -10.7404  -22.4168   29.4109 H   0  0  0  0  0  0  0  0  0  0  0  0
   -9.7718  -24.4546   28.2962 H   0  0  0  0  0  0  0  0  0  0  0  0
  -11.0228  -25.4694   26.3842 H   0  0  0  0  0  0  0  0  0  0  0  0
  -13.8150  -25.2269   24.1814 H   0  0  0  0  0  0  0  0  0  0  0  0
  -13.8766  -25.5677   25.8457 H   0  0  0  0  0  0  0  0  0  0  0  0
  -15.9862  -25.4180   24.2265 H   0  0  0  0  0  0  0  0  0  0  0  0
  -16.1694  -25.1798   25.8558 H   0  0  0  0  0  0  0  0  0  0  0  0
  -15.8032  -23.4920   19.8294 H   0  0  0  0  0  0  0  0  0  0  0  0
  -15.0830  -25.2392   19.7168 H   0  0  0  0  0  0  0  0  0  0  0  0
  -16.8983  -23.7683   17.9031 H   0  0  0  0  0  0  0  0  0  0  0  0
  -16.8315  -25.4461   18.4134 H   0  0  0  0  0  0  0  0  0  0  0  0
  -15.4284  -25.8609   16.5926 H   0  0  0  0  0  0  0  0  0  0  0  0
  -15.3203  -24.1329   16.2414 H   0  0  0  0  0  0  0  0  0  0  0  0
  -13.7377  -25.7757   18.2877 H   0  0  0  0  0  0  0  0  0  0  0  0
  -13.2187  -24.7180   17.0662 H   0  0  0  0  0  0  0  0  0  0  0  0
  1  2  1  0
  2  3  1  0
  3  4  1  0
  4  5  2  0
  5  6  1  0
  6  7  2  0
  7  8  1  0
  8  9  2  0
  9 10  1  0
 10 11  2  0
 11 12  1  0
 12 13  1  0
 13 14  1  0
 14 15  1  0
 15 16  3  0
  2 17  1  0
 17 18  2  0
 17 19  1  0
 19 20  1  0
 20 21  1  0
 21 22  1  0
 22 23  1  0
 12  4  1  0
 23 19  1  0
 11  6  1  0
  1 24  1  0
  1 25  1  0
  1 26  1  0
  2 27  1  0
  7 28  1  0
  8 29  1  0
  9 30  1  0
 10 31  1  0
 13 32  1  0
 13 33  1  0
 14 34  1  0
 14 35  1  0
 20 36  1  0
 20 37  1  0
 21 38  1  0
 21 39  1  0
 22 40  1  0
 22 41  1  0
 23 42  1  0
 23 43  1  0
M  END
>  <Energy>  (538) 
263.03379339313835

>  <compound_id>  (538) 
9240

>  <target_id>  (538) 
1

>  <reference_id>  (538) 
30

>  <inspiration_ids>  (538) 
[52, 30]

>  <energy_score>  (538) 
210.87654287112434

>  <distance_score>  (538) 
6.113054361286913

>  <path>  (538) 
/opt/xchem-fragalysis-2/maxwin/BulkDock/SCRATCH/511014/C9240-P30/C9240-P30.minimised.mol

>  <scratch_subdir>  (538) 
/opt/xchem-fragalysis-2/maxwin/BulkDock/SCRATCH/511014/C9240-P30

>  <fragmenstein_runtime>  (538) 
10.790758848190308

>  <fragmenstein_outcome>  (538) 
too moved

>  <fragmenstein_mode>  (538) 
expansion

>  <fragmenstein_error>  (538) 


$$$$
C9241-P52
     RDKit          3D

 39 41  0  0  0  0  0  0  0  0999 V2000
  -11.1114  -30.8407   21.2775 C   0  0  0  0  0  0  0  0  0  0  0  0
  -10.6623  -29.2387   20.8462 C   0  0  0  0  0  0  0  0  0  0  0  0
  -10.2353  -27.2583   22.2797 S   0  0  0  0  0  0  0  0  0  0  0  0
  -11.3411  -26.8562   24.3400 C   0  0  0  0  0  0  0  0  0  0  0  0
  -12.6335  -27.0979   24.6923 N   0  0  0  0  0  0  0  0  0  0  0  0
  -12.8297  -26.7964   26.0592 C   0  0  0  0  0  0  0  0  0  0  0  0
  -13.8929  -27.1022   26.9299 C   0  0  0  0  0  0  0  0  0  0  0  0
  -13.7814  -26.7986   28.3015 C   0  0  0  0  0  0  0  0  0  0  0  0
  -12.6413  -26.1793   28.8072 C   0  0  0  0  0  0  0  0  0  0  0  0
  -11.6013  -25.8164   27.9558 C   0  0  0  0  0  0  0  0  0  0  0  0
  -11.7379  -26.1465   26.5942 C   0  0  0  0  0  0  0  0  0  0  0  0
  -10.9787  -25.7981   25.4588 N   0  0  0  0  0  0  0  0  0  0  0  0
  -10.7033  -24.3544   25.4687 C   0  0  0  0  0  0  0  0  0  0  0  0
  -11.3474  -29.0206   19.0439 C   0  0  0  0  0  0  0  0  0  0  0  0
  -11.4185  -27.9159   18.5718 O   0  0  0  0  0  0  0  0  0  0  0  0
  -11.6069  -30.2975   18.4514 N   0  0  0  0  0  0  0  0  0  0  0  0
  -11.9372  -30.6703   17.0419 C   0  0  0  0  0  0  0  0  0  0  0  0
  -12.4956  -32.0543   16.8997 C   0  0  0  0  0  0  0  0  0  0  0  0
  -13.3751  -32.0566   18.0951 C   0  0  0  0  0  0  0  0  0  0  0  0
  -13.0539  -30.6886   18.6550 C   0  0  0  0  0  0  0  0  0  0  0  0
  -11.0226  -31.5147   20.4255 H   0  0  0  0  0  0  0  0  0  0  0  0
  -12.1455  -30.9449   21.6096 H   0  0  0  0  0  0  0  0  0  0  0  0
  -10.4381  -31.2551   22.0393 H   0  0  0  0  0  0  0  0  0  0  0  0
   -9.6532  -29.4917   20.9741 H   0  0  0  0  0  0  0  0  0  0  0  0
  -14.7735  -27.6078   26.5482 H   0  0  0  0  0  0  0  0  0  0  0  0
  -14.5961  -27.0664   28.9702 H   0  0  0  0  0  0  0  0  0  0  0  0
  -12.5589  -25.9584   29.8662 H   0  0  0  0  0  0  0  0  0  0  0  0
  -10.7254  -25.3008   28.3371 H   0  0  0  0  0  0  0  0  0  0  0  0
  -11.6361  -23.8014   25.3299 H   0  0  0  0  0  0  0  0  0  0  0  0
  -10.3626  -24.0624   26.4676 H   0  0  0  0  0  0  0  0  0  0  0  0
   -9.9289  -24.0376   24.7876 H   0  0  0  0  0  0  0  0  0  0  0  0
  -12.5438  -29.8879   16.5534 H   0  0  0  0  0  0  0  0  0  0  0  0
  -10.9799  -30.6174   16.5055 H   0  0  0  0  0  0  0  0  0  0  0  0
  -13.0303  -32.1986   15.9572 H   0  0  0  0  0  0  0  0  0  0  0  0
  -11.7147  -32.8176   16.9829 H   0  0  0  0  0  0  0  0  0  0  0  0
  -13.0895  -32.8530   18.7908 H   0  0  0  0  0  0  0  0  0  0  0  0
  -14.4376  -32.1656   17.8597 H   0  0  0  0  0  0  0  0  0  0  0  0
  -13.7303  -29.9011   18.2777 H   0  0  0  0  0  0  0  0  0  0  0  0
  -13.2575  -30.7106   19.7284 H   0  0  0  0  0  0  0  0  0  0  0  0
  1  2  1  0
  2  3  1  0
  3  4  1  0
  4  5  2  0
  5  6  1  0
  6  7  2  0
  7  8  1  0
  8  9  2  0
  9 10  1  0
 10 11  2  0
 11 12  1  0
 12 13  1  0
  2 14  1  0
 14 15  2  0
 14 16  1  0
 16 17  1  0
 17 18  1  0
 18 19  1  0
 19 20  1  0
 12  4  1  0
 20 16  1  0
 11  6  1  0
  1 21  1  0
  1 22  1  0
  1 23  1  0
  2 24  1  0
  7 25  1  0
  8 26  1  0
  9 27  1  0
 10 28  1  0
 13 29  1  0
 13 30  1  0
 13 31  1  0
 17 32  1  0
 17 33  1  0
 18 34  1  0
 18 35  1  0
 19 36  1  0
 19 37  1  0
 20 38  1  0
 20 39  1  0
M  END
>  <Energy>  (539) 
403.14290719908166

>  <compound_id>  (539) 
9241

>  <target_id>  (539) 
1

>  <reference_id>  (539) 
52

>  <inspiration_ids>  (539) 
[52, 30]

>  <energy_score>  (539) 
324.64836662168904

>  <distance_score>  (539) 
6.801005087777117

>  <path>  (539) 
/opt/xchem-fragalysis-2/maxwin/BulkDock/SCRATCH/511014/C9241-P52/C9241-P52.minimised.mol

>  <scratch_subdir>  (539) 
/opt/xchem-fragalysis-2/maxwin/BulkDock/SCRATCH/511014/C9241-P52

>  <fragmenstein_runtime>  (539) 
7.561457395553589

>  <fragmenstein_outcome>  (539) 
too moved

>  <fragmenstein_mode>  (539) 
expansion

>  <fragmenstein_error>  (539) 


$$$$
C9241-P30
     RDKit          3D

 39 41  0  0  0  0  0  0  0  0999 V2000
  -12.0533  -29.6035   19.2411 C   0  0  0  0  0  0  0  0  0  0  0  0
  -11.8868  -28.0494   19.7697 C   0  0  0  0  0  0  0  0  0  0  0  0
  -10.3526  -27.5116   21.7395 S   0  0  0  0  0  0  0  0  0  0  0  0
  -10.9159  -27.2899   24.1236 C   0  0  0  0  0  0  0  0  0  0  0  0
  -11.9165  -27.9746   24.8841 N   0  0  0  0  0  0  0  0  0  0  0  0
  -12.8035  -27.3312   25.7414 C   0  0  0  0  0  0  0  0  0  0  0  0
  -14.1535  -27.6349   25.9889 C   0  0  0  0  0  0  0  0  0  0  0  0
  -15.0513  -26.6126   25.7299 C   0  0  0  0  0  0  0  0  0  0  0  0
  -14.5760  -25.3328   25.5160 C   0  0  0  0  0  0  0  0  0  0  0  0
  -13.2774  -24.9866   25.8973 C   0  0  0  0  0  0  0  0  0  0  0  0
  -12.3866  -26.0589   25.8255 C   0  0  0  0  0  0  0  0  0  0  0  0
  -11.0298  -26.1246   25.3992 N   0  0  0  0  0  0  0  0  0  0  0  0
  -10.2914  -24.9609   25.9113 C   0  0  0  0  0  0  0  0  0  0  0  0
  -11.9781  -27.1093   18.3696 C   0  0  0  0  0  0  0  0  0  0  0  0
  -11.0406  -26.9749   17.6284 O   0  0  0  0  0  0  0  0  0  0  0  0
  -13.3719  -26.6368   18.2423 N   0  0  0  0  0  0  0  0  0  0  0  0
  -14.0168  -25.7548   17.2096 C   0  0  0  0  0  0  0  0  0  0  0  0
  -13.7960  -26.2613   15.8008 C   0  0  0  0  0  0  0  0  0  0  0  0
  -13.9784  -27.7179   16.0508 C   0  0  0  0  0  0  0  0  0  0  0  0
  -14.2246  -27.6842   17.5508 C   0  0  0  0  0  0  0  0  0  0  0  0
  -12.0859  -29.6306   18.1505 H   0  0  0  0  0  0  0  0  0  0  0  0
  -13.0005  -30.0647   19.5123 H   0  0  0  0  0  0  0  0  0  0  0  0
  -11.3065  -30.2758   19.6654 H   0  0  0  0  0  0  0  0  0  0  0  0
  -12.9521  -27.8511   19.9789 H   0  0  0  0  0  0  0  0  0  0  0  0
  -14.5452  -28.6471   26.0217 H   0  0  0  0  0  0  0  0  0  0  0  0
  -16.1114  -26.8287   25.6127 H   0  0  0  0  0  0  0  0  0  0  0  0
  -15.2695  -24.5485   25.2043 H   0  0  0  0  0  0  0  0  0  0  0  0
  -12.9754  -23.9413   25.8712 H   0  0  0  0  0  0  0  0  0  0  0  0
  -10.2413  -25.0727   26.9954 H   0  0  0  0  0  0  0  0  0  0  0  0
   -9.3246  -24.7997   25.4833 H   0  0  0  0  0  0  0  0  0  0  0  0
  -10.8519  -24.0420   25.7465 H   0  0  0  0  0  0  0  0  0  0  0  0
  -13.5713  -24.7677   17.3015 H   0  0  0  0  0  0  0  0  0  0  0  0
  -15.0778  -25.5713   17.4519 H   0  0  0  0  0  0  0  0  0  0  0  0
  -14.5149  -25.8428   15.0914 H   0  0  0  0  0  0  0  0  0  0  0  0
  -12.7830  -26.0472   15.4449 H   0  0  0  0  0  0  0  0  0  0  0  0
  -13.0724  -28.2795   15.8000 H   0  0  0  0  0  0  0  0  0  0  0  0
  -14.8217  -28.1532   15.5075 H   0  0  0  0  0  0  0  0  0  0  0  0
  -15.2885  -27.5464   17.8109 H   0  0  0  0  0  0  0  0  0  0  0  0
  -13.9981  -28.6686   17.9601 H   0  0  0  0  0  0  0  0  0  0  0  0
  1  2  1  0
  2  3  1  0
  3  4  1  0
  4  5  2  0
  5  6  1  0
  6  7  2  0
  7  8  1  0
  8  9  2  0
  9 10  1  0
 10 11  2  0
 11 12  1  0
 12 13  1  0
  2 14  1  0
 14 15  2  0
 14 16  1  0
 16 17  1  0
 17 18  1  0
 18 19  1  0
 19 20  1  0
 12  4  1  0
 20 16  1  0
 11  6  1  0
  1 21  1  0
  1 22  1  0
  1 23  1  0
  2 24  1  0
  7 25  1  0
  8 26  1  0
  9 27  1  0
 10 28  1  0
 13 29  1  0
 13 30  1  0
 13 31  1  0
 17 32  1  0
 17 33  1  0
 18 34  1  0
 18 35  1  0
 19 36  1  0
 19 37  1  0
 20 38  1  0
 20 39  1  0
M  END
>  <Energy>  (540) 
569.42795679607013

>  <compound_id>  (540) 
9241

>  <target_id>  (540) 
1

>  <reference_id>  (540) 
30

>  <inspiration_ids>  (540) 
[52, 30]

>  <energy_score>  (540) 
490.93341621866927

>  <distance_score>  (540) 
6.6918202781326235

>  <path>  (540) 
/opt/xchem-fragalysis-2/maxwin/BulkDock/SCRATCH/511014/C9241-P30/C9241-P30.minimised.mol

>  <scratch_subdir>  (540) 
/opt/xchem-fragalysis-2/maxwin/BulkDock/SCRATCH/511014/C9241-P30

>  <fragmenstein_runtime>  (540) 
7.415814399719238

>  <fragmenstein_outcome>  (540) 
too moved

>  <fragmenstein_mode>  (540) 
expansion

>  <fragmenstein_error>  (540) 


$$$$
C9242-P52
     RDKit          3D

 46 49  0  0  0  0  0  0  0  0999 V2000
  -10.9593  -26.4683   18.6897 C   0  0  0  0  0  0  0  0  0  0  0  0
  -10.9713  -25.1659   20.3574 C   0  0  0  0  0  0  0  0  0  0  0  0
  -10.2683  -26.9620   22.0609 S   0  0  0  0  0  0  0  0  0  0  0  0
  -11.3270  -26.7431   24.2476 C   0  0  0  0  0  0  0  0  0  0  0  0
  -12.5903  -27.1298   24.6523 N   0  0  0  0  0  0  0  0  0  0  0  0
  -12.6983  -26.9867   26.0722 C   0  0  0  0  0  0  0  0  0  0  0  0
  -13.6637  -27.4642   26.9812 C   0  0  0  0  0  0  0  0  0  0  0  0
  -13.4671  -27.2892   28.3673 C   0  0  0  0  0  0  0  0  0  0  0  0
  -12.3435  -26.6272   28.8616 C   0  0  0  0  0  0  0  0  0  0  0  0
  -11.3972  -26.0966   27.9868 C   0  0  0  0  0  0  0  0  0  0  0  0
  -11.6029  -26.3126   26.6081 C   0  0  0  0  0  0  0  0  0  0  0  0
  -11.0350  -25.6875   25.4775 N   0  0  0  0  0  0  0  0  0  0  0  0
  -11.4017  -24.2691   25.5386 C   0  0  0  0  0  0  0  0  0  0  0  0
  -12.7583  -23.9511   25.8038 C   0  0  0  0  0  0  0  0  0  0  0  0
  -13.3551  -22.9063   25.1289 C   0  0  0  0  0  0  0  0  0  0  0  0
  -12.5949  -22.1008   24.3069 C   0  0  0  0  0  0  0  0  0  0  0  0
  -11.2590  -22.3509   24.1303 C   0  0  0  0  0  0  0  0  0  0  0  0
  -10.6244  -23.3724   24.8540 C   0  0  0  0  0  0  0  0  0  0  0  0
  -12.8723  -25.2310   19.7851 C   0  0  0  0  0  0  0  0  0  0  0  0
  -13.5946  -25.1095   20.7440 O   0  0  0  0  0  0  0  0  0  0  0  0
  -13.3031  -25.4419   18.1820 N   0  0  0  0  0  0  0  0  0  0  0  0
  -14.6936  -25.4208   17.5056 C   0  0  0  0  0  0  0  0  0  0  0  0
  -15.5477  -26.6580   17.3612 C   0  0  0  0  0  0  0  0  0  0  0  0
  -14.4706  -27.5031   16.8757 C   0  0  0  0  0  0  0  0  0  0  0  0
  -13.4234  -26.9720   17.8351 C   0  0  0  0  0  0  0  0  0  0  0  0
  -11.5645  -27.3829   18.8180 H   0  0  0  0  0  0  0  0  0  0  0  0
  -10.1090  -27.1056   18.4792 H   0  0  0  0  0  0  0  0  0  0  0  0
  -11.0952  -26.0768   17.6664 H   0  0  0  0  0  0  0  0  0  0  0  0
  -10.1950  -24.4542   20.3735 H   0  0  0  0  0  0  0  0  0  0  0  0
  -14.5350  -27.9955   26.6123 H   0  0  0  0  0  0  0  0  0  0  0  0
  -14.2085  -27.6854   29.0584 H   0  0  0  0  0  0  0  0  0  0  0  0
  -12.2174  -26.4927   29.9326 H   0  0  0  0  0  0  0  0  0  0  0  0
  -10.5647  -25.4997   28.3474 H   0  0  0  0  0  0  0  0  0  0  0  0
  -13.4324  -24.5913   26.3618 H   0  0  0  0  0  0  0  0  0  0  0  0
  -14.4248  -22.7321   25.1917 H   0  0  0  0  0  0  0  0  0  0  0  0
  -13.0407  -21.2659   23.8030 H   0  0  0  0  0  0  0  0  0  0  0  0
  -10.7041  -21.7587   23.4006 H   0  0  0  0  0  0  0  0  0  0  0  0
   -9.5862  -23.5932   24.6447 H   0  0  0  0  0  0  0  0  0  0  0  0
  -14.4823  -25.0112   16.5045 H   0  0  0  0  0  0  0  0  0  0  0  0
  -15.3801  -24.7233   17.9327 H   0  0  0  0  0  0  0  0  0  0  0  0
  -16.3657  -26.5337   16.6466 H   0  0  0  0  0  0  0  0  0  0  0  0
  -15.9561  -27.0107   18.3132 H   0  0  0  0  0  0  0  0  0  0  0  0
  -14.2132  -27.2980   15.8291 H   0  0  0  0  0  0  0  0  0  0  0  0
  -14.6515  -28.5753   16.9895 H   0  0  0  0  0  0  0  0  0  0  0  0
  -13.4561  -27.5481   18.7510 H   0  0  0  0  0  0  0  0  0  0  0  0
  -12.5391  -27.2408   17.2527 H   0  0  0  0  0  0  0  0  0  0  0  0
  1  2  1  0
  2  3  1  0
  3  4  1  0
  4  5  2  0
  5  6  1  0
  6  7  2  0
  7  8  1  0
  8  9  2  0
  9 10  1  0
 10 11  2  0
 11 12  1  0
 12 13  1  0
 13 14  2  0
 14 15  1  0
 15 16  2  0
 16 17  1  0
 17 18  2  0
  2 19  1  0
 19 20  2  0
 19 21  1  0
 21 22  1  0
 22 23  1  0
 23 24  1  0
 24 25  1  0
 12  4  1  0
 18 13  1  0
 25 21  1  0
 11  6  1  0
  1 26  1  0
  1 27  1  0
  1 28  1  0
  2 29  1  0
  7 30  1  0
  8 31  1  0
  9 32  1  0
 10 33  1  0
 14 34  1  0
 15 35  1  0
 16 36  1  0
 17 37  1  0
 18 38  1  0
 22 39  1  0
 22 40  1  0
 23 41  1  0
 23 42  1  0
 24 43  1  0
 24 44  1  0
 25 45  1  0
 25 46  1  0
M  END
>  <Energy>  (541) 
700.40069947694815

>  <compound_id>  (541) 
9242

>  <target_id>  (541) 
1

>  <reference_id>  (541) 
52

>  <inspiration_ids>  (541) 
[52, 30]

>  <energy_score>  (541) 
585.7108989256536

>  <distance_score>  (541) 
6.061636045895811

>  <path>  (541) 
/opt/xchem-fragalysis-2/maxwin/BulkDock/SCRATCH/511014/C9242-P52/C9242-P52.minimised.mol

>  <scratch_subdir>  (541) 
/opt/xchem-fragalysis-2/maxwin/BulkDock/SCRATCH/511014/C9242-P52

>  <fragmenstein_runtime>  (541) 
10.059364318847656

>  <fragmenstein_outcome>  (541) 
too moved

>  <fragmenstein_mode>  (541) 
expansion

>  <fragmenstein_error>  (541) 


$$$$
C9242-P30
     RDKit          3D

 46 49  0  0  0  0  0  0  0  0999 V2000
  -15.9655  -24.0261   19.2746 C   0  0  0  0  0  0  0  0  0  0  0  0
  -14.3963  -24.3467   19.3451 C   0  0  0  0  0  0  0  0  0  0  0  0
  -12.8801  -23.3022   20.7118 S   0  0  0  0  0  0  0  0  0  0  0  0
  -13.3039  -22.6610   22.7956 C   0  0  0  0  0  0  0  0  0  0  0  0
  -12.3975  -22.0896   23.6199 N   0  0  0  0  0  0  0  0  0  0  0  0
  -12.7125  -22.6054   24.9220 C   0  0  0  0  0  0  0  0  0  0  0  0
  -12.1733  -22.5098   26.2042 C   0  0  0  0  0  0  0  0  0  0  0  0
  -11.9603  -23.7277   26.8380 C   0  0  0  0  0  0  0  0  0  0  0  0
  -12.6303  -24.8845   26.4225 C   0  0  0  0  0  0  0  0  0  0  0  0
  -13.6740  -24.7956   25.5222 C   0  0  0  0  0  0  0  0  0  0  0  0
  -13.6459  -23.6120   24.7890 C   0  0  0  0  0  0  0  0  0  0  0  0
  -14.3569  -23.0682   23.7625 N   0  0  0  0  0  0  0  0  0  0  0  0
  -15.7589  -22.7806   24.0128 C   0  0  0  0  0  0  0  0  0  0  0  0
  -16.5922  -23.8037   24.5131 C   0  0  0  0  0  0  0  0  0  0  0  0
  -17.9354  -23.5708   24.7907 C   0  0  0  0  0  0  0  0  0  0  0  0
  -18.4653  -22.3087   24.5758 C   0  0  0  0  0  0  0  0  0  0  0  0
  -17.6445  -21.2818   24.1214 C   0  0  0  0  0  0  0  0  0  0  0  0
  -16.2886  -21.5043   23.8856 C   0  0  0  0  0  0  0  0  0  0  0  0
  -13.8639  -25.2473   18.0838 C   0  0  0  0  0  0  0  0  0  0  0  0
  -12.9899  -26.0507   18.3022 O   0  0  0  0  0  0  0  0  0  0  0  0
  -14.5387  -24.9169   16.8575 N   0  0  0  0  0  0  0  0  0  0  0  0
  -14.2981  -25.3829   15.4437 C   0  0  0  0  0  0  0  0  0  0  0  0
  -15.4534  -25.0207   14.5430 C   0  0  0  0  0  0  0  0  0  0  0  0
  -16.5743  -25.3272   15.4749 C   0  0  0  0  0  0  0  0  0  0  0  0
  -15.7809  -25.7796   16.6844 C   0  0  0  0  0  0  0  0  0  0  0  0
  -16.5420  -24.9106   19.5766 H   0  0  0  0  0  0  0  0  0  0  0  0
  -16.3093  -23.1983   19.8863 H   0  0  0  0  0  0  0  0  0  0  0  0
  -16.3850  -23.8519   18.2827 H   0  0  0  0  0  0  0  0  0  0  0  0
  -14.4667  -25.3316   19.8155 H   0  0  0  0  0  0  0  0  0  0  0  0
  -11.7040  -21.6162   26.5836 H   0  0  0  0  0  0  0  0  0  0  0  0
  -11.2286  -23.7480   27.6410 H   0  0  0  0  0  0  0  0  0  0  0  0
  -12.3671  -25.8607   26.8073 H   0  0  0  0  0  0  0  0  0  0  0  0
  -14.2994  -25.6357   25.2578 H   0  0  0  0  0  0  0  0  0  0  0  0
  -16.2298  -24.8122   24.6695 H   0  0  0  0  0  0  0  0  0  0  0  0
  -18.5649  -24.3696   25.1709 H   0  0  0  0  0  0  0  0  0  0  0  0
  -19.5097  -22.1069   24.7967 H   0  0  0  0  0  0  0  0  0  0  0  0
  -18.0491  -20.2777   24.0223 H   0  0  0  0  0  0  0  0  0  0  0  0
  -15.6629  -20.6425   23.7073 H   0  0  0  0  0  0  0  0  0  0  0  0
  -14.0028  -26.4459   15.4087 H   0  0  0  0  0  0  0  0  0  0  0  0
  -13.4082  -24.8795   15.0683 H   0  0  0  0  0  0  0  0  0  0  0  0
  -15.4690  -25.6164   13.6264 H   0  0  0  0  0  0  0  0  0  0  0  0
  -15.4419  -23.9589   14.2748 H   0  0  0  0  0  0  0  0  0  0  0  0
  -17.1609  -24.4285   15.6929 H   0  0  0  0  0  0  0  0  0  0  0  0
  -17.2476  -26.1066   15.1078 H   0  0  0  0  0  0  0  0  0  0  0  0
  -15.5205  -26.8541   16.6608 H   0  0  0  0  0  0  0  0  0  0  0  0
  -16.4165  -25.7313   17.5683 H   0  0  0  0  0  0  0  0  0  0  0  0
  1  2  1  0
  2  3  1  0
  3  4  1  0
  4  5  2  0
  5  6  1  0
  6  7  2  0
  7  8  1  0
  8  9  2  0
  9 10  1  0
 10 11  2  0
 11 12  1  0
 12 13  1  0
 13 14  2  0
 14 15  1  0
 15 16  2  0
 16 17  1  0
 17 18  2  0
  2 19  1  0
 19 20  2  0
 19 21  1  0
 21 22  1  0
 22 23  1  0
 23 24  1  0
 24 25  1  0
 12  4  1  0
 18 13  1  0
 25 21  1  0
 11  6  1  0
  1 26  1  0
  1 27  1  0
  1 28  1  0
  2 29  1  0
  7 30  1  0
  8 31  1  0
  9 32  1  0
 10 33  1  0
 14 34  1  0
 15 35  1  0
 16 36  1  0
 17 37  1  0
 18 38  1  0
 22 39  1  0
 22 40  1  0
 23 41  1  0
 23 42  1  0
 24 43  1  0
 24 44  1  0
 25 45  1  0
 25 46  1  0
M  END
>  <Energy>  (542) 
368.03735538328618

>  <compound_id>  (542) 
9242

>  <target_id>  (542) 
1

>  <reference_id>  (542) 
30

>  <inspiration_ids>  (542) 
[52, 30]

>  <energy_score>  (542) 
253.34755483198808

>  <distance_score>  (542) 
6.5757388159111

>  <path>  (542) 
/opt/xchem-fragalysis-2/maxwin/BulkDock/SCRATCH/511014/C9242-P30/C9242-P30.minimised.mol

>  <scratch_subdir>  (542) 
/opt/xchem-fragalysis-2/maxwin/BulkDock/SCRATCH/511014/C9242-P30

>  <fragmenstein_runtime>  (542) 
12.76097846031189

>  <fragmenstein_outcome>  (542) 
too moved

>  <fragmenstein_mode>  (542) 
expansion

>  <fragmenstein_error>  (542) 


$$$$
C9243-P52
     RDKit          3D

 38 40  0  0  0  0  0  0  0  0999 V2000
  -16.9152  -26.2929   23.8568 N   0  0  0  0  0  0  0  0  0  0  0  0
  -15.6424  -27.0009   23.6828 C   0  0  0  0  0  0  0  0  0  0  0  0
  -15.9427  -28.3288   22.8633 C   0  0  0  0  0  0  0  0  0  0  0  0
  -16.3029  -28.0346   21.3623 C   0  0  0  0  0  0  0  0  0  0  0  0
  -16.6155  -29.1529   20.4423 N   0  0  0  0  0  0  0  0  0  0  0  0
  -17.3379  -28.6557   19.2413 C   0  0  0  0  0  0  0  0  0  0  0  0
  -16.2932  -28.2756   18.1941 C   0  0  0  0  0  0  0  0  0  0  0  0
  -15.0173  -28.9622   18.6497 C   0  0  0  0  0  0  0  0  0  0  0  0
  -15.4548  -29.8237   19.8312 C   0  0  0  0  0  0  0  0  0  0  0  0
  -14.8877  -26.9718   25.0396 C   0  0  0  0  0  0  0  0  0  0  0  0
  -14.8761  -28.0217   25.9679 C   0  0  0  0  0  0  0  0  0  0  0  0
  -14.2571  -27.9059   27.2398 C   0  0  0  0  0  0  0  0  0  0  0  0
  -13.6456  -26.6896   27.5621 C   0  0  0  0  0  0  0  0  0  0  0  0
  -12.9817  -26.2314   28.6746 N   0  0  0  0  0  0  0  0  0  0  0  0
  -12.5948  -24.9421   28.4370 C   0  0  0  0  0  0  0  0  0  0  0  0
  -12.9633  -24.5458   27.2405 N   0  0  0  0  0  0  0  0  0  0  0  0
  -13.6255  -25.6152   26.6854 C   0  0  0  0  0  0  0  0  0  0  0  0
  -14.2535  -25.7540   25.4294 C   0  0  0  0  0  0  0  0  0  0  0  0
  -16.7482  -25.3737   24.2678 H   0  0  0  0  0  0  0  0  0  0  0  0
  -17.4918  -26.7928   24.5333 H   0  0  0  0  0  0  0  0  0  0  0  0
  -15.0190  -26.3966   23.0142 H   0  0  0  0  0  0  0  0  0  0  0  0
  -15.1119  -29.0240   22.9137 H   0  0  0  0  0  0  0  0  0  0  0  0
  -16.7838  -28.8575   23.3322 H   0  0  0  0  0  0  0  0  0  0  0  0
  -15.5055  -27.4382   20.9351 H   0  0  0  0  0  0  0  0  0  0  0  0
  -17.1988  -27.4052   21.4159 H   0  0  0  0  0  0  0  0  0  0  0  0
  -17.9473  -29.4826   18.8532 H   0  0  0  0  0  0  0  0  0  0  0  0
  -18.0375  -27.8391   19.4499 H   0  0  0  0  0  0  0  0  0  0  0  0
  -16.1454  -27.1925   18.1478 H   0  0  0  0  0  0  0  0  0  0  0  0
  -16.5964  -28.6157   17.1984 H   0  0  0  0  0  0  0  0  0  0  0  0
  -14.2810  -28.2109   18.9525 H   0  0  0  0  0  0  0  0  0  0  0  0
  -14.5715  -29.5655   17.8528 H   0  0  0  0  0  0  0  0  0  0  0  0
  -15.7943  -30.7962   19.4488 H   0  0  0  0  0  0  0  0  0  0  0  0
  -14.6580  -30.0598   20.5381 H   0  0  0  0  0  0  0  0  0  0  0  0
  -15.3873  -28.9542   25.7290 H   0  0  0  0  0  0  0  0  0  0  0  0
  -14.2804  -28.7359   27.9395 H   0  0  0  0  0  0  0  0  0  0  0  0
  -12.7976  -26.7612   29.5128 H   0  0  0  0  0  0  0  0  0  0  0  0
  -12.0492  -24.3497   29.1609 H   0  0  0  0  0  0  0  0  0  0  0  0
  -14.2674  -24.8875   24.7722 H   0  0  0  0  0  0  0  0  0  0  0  0
  1  2  1  0
  2  3  1  0
  3  4  1  0
  4  5  1  0
  5  6  1  0
  6  7  1  0
  7  8  1  0
  8  9  1  0
  2 10  1  0
 10 11  2  0
 11 12  1  0
 12 13  2  0
 13 14  1  0
 14 15  1  0
 15 16  2  0
 16 17  1  0
 17 18  2  0
  9  5  1  0
 18 10  1  0
 17 13  1  0
  1 19  1  0
  1 20  1  0
  2 21  1  0
  3 22  1  0
  3 23  1  0
  4 24  1  0
  4 25  1  0
  6 26  1  0
  6 27  1  0
  7 28  1  0
  7 29  1  0
  8 30  1  0
  8 31  1  0
  9 32  1  0
  9 33  1  0
 11 34  1  0
 12 35  1  0
 14 36  1  0
 15 37  1  0
 18 38  1  0
M  END
>  <Energy>  (543) 
24.25326226740388

>  <compound_id>  (543) 
9243

>  <target_id>  (543) 
1

>  <reference_id>  (543) 
52

>  <inspiration_ids>  (543) 
[52, 30]

>  <energy_score>  (543) 
-17.444060197138697

>  <distance_score>  (543) 
8.298351411776062

>  <path>  (543) 
/opt/xchem-fragalysis-2/maxwin/BulkDock/SCRATCH/511014/C9243-P52/C9243-P52.minimised.mol

>  <scratch_subdir>  (543) 
/opt/xchem-fragalysis-2/maxwin/BulkDock/SCRATCH/511014/C9243-P52

>  <fragmenstein_runtime>  (543) 
7.5826966762542725

>  <fragmenstein_outcome>  (543) 
too moved

>  <fragmenstein_mode>  (543) 
expansion

>  <fragmenstein_error>  (543) 


$$$$
C9243-P30
     RDKit          3D

 38 40  0  0  0  0  0  0  0  0999 V2000
  -11.4987  -21.9914   23.2969 N   0  0  0  0  0  0  0  0  0  0  0  0
  -12.4007  -22.2538   24.4100 C   0  0  0  0  0  0  0  0  0  0  0  0
  -13.9041  -22.4686   23.9321 C   0  0  0  0  0  0  0  0  0  0  0  0
  -14.4597  -23.5490   22.9642 C   0  0  0  0  0  0  0  0  0  0  0  0
  -14.1346  -23.3720   21.5448 N   0  0  0  0  0  0  0  0  0  0  0  0
  -14.4429  -24.5568   20.7205 C   0  0  0  0  0  0  0  0  0  0  0  0
  -15.8210  -24.3577   20.1077 C   0  0  0  0  0  0  0  0  0  0  0  0
  -16.2176  -22.9516   20.5105 C   0  0  0  0  0  0  0  0  0  0  0  0
  -14.9121  -22.2916   20.9381 C   0  0  0  0  0  0  0  0  0  0  0  0
  -11.8957  -23.1780   25.5781 C   0  0  0  0  0  0  0  0  0  0  0  0
  -12.5806  -23.1032   26.6930 C   0  0  0  0  0  0  0  0  0  0  0  0
  -13.0365  -24.3262   27.0320 C   0  0  0  0  0  0  0  0  0  0  0  0
  -12.6466  -25.5212   26.4839 C   0  0  0  0  0  0  0  0  0  0  0  0
  -12.9761  -26.8256   26.6564 N   0  0  0  0  0  0  0  0  0  0  0  0
  -11.8024  -27.5023   26.5466 C   0  0  0  0  0  0  0  0  0  0  0  0
  -10.8668  -26.7528   26.0109 N   0  0  0  0  0  0  0  0  0  0  0  0
  -11.3291  -25.4719   26.1062 C   0  0  0  0  0  0  0  0  0  0  0  0
  -10.8639  -24.1736   25.7560 C   0  0  0  0  0  0  0  0  0  0  0  0
  -11.5164  -20.9945   23.0666 H   0  0  0  0  0  0  0  0  0  0  0  0
  -11.8428  -22.4070   22.4278 H   0  0  0  0  0  0  0  0  0  0  0  0
  -12.4230  -21.2729   24.9019 H   0  0  0  0  0  0  0  0  0  0  0  0
  -14.4992  -22.6360   24.8373 H   0  0  0  0  0  0  0  0  0  0  0  0
  -14.2381  -21.4918   23.5575 H   0  0  0  0  0  0  0  0  0  0  0  0
  -15.5519  -23.5524   23.0881 H   0  0  0  0  0  0  0  0  0  0  0  0
  -14.1718  -24.5332   23.3430 H   0  0  0  0  0  0  0  0  0  0  0  0
  -14.4003  -25.4945   21.2812 H   0  0  0  0  0  0  0  0  0  0  0  0
  -13.6994  -24.6252   19.9192 H   0  0  0  0  0  0  0  0  0  0  0  0
  -16.5429  -25.0841   20.4961 H   0  0  0  0  0  0  0  0  0  0  0  0
  -15.7840  -24.4740   19.0206 H   0  0  0  0  0  0  0  0  0  0  0  0
  -16.7579  -22.4221   19.7243 H   0  0  0  0  0  0  0  0  0  0  0  0
  -16.9058  -23.0017   21.3640 H   0  0  0  0  0  0  0  0  0  0  0  0
  -14.3196  -21.9160   20.1058 H   0  0  0  0  0  0  0  0  0  0  0  0
  -15.0941  -21.4335   21.5915 H   0  0  0  0  0  0  0  0  0  0  0  0
  -12.8616  -22.1935   27.1816 H   0  0  0  0  0  0  0  0  0  0  0  0
  -13.4090  -24.3607   28.0229 H   0  0  0  0  0  0  0  0  0  0  0  0
  -13.8357  -27.1970   27.0320 H   0  0  0  0  0  0  0  0  0  0  0  0
  -11.7016  -28.5211   26.8810 H   0  0  0  0  0  0  0  0  0  0  0  0
   -9.9433  -24.1910   25.2096 H   0  0  0  0  0  0  0  0  0  0  0  0
  1  2  1  0
  2  3  1  0
  3  4  1  0
  4  5  1  0
  5  6  1  0
  6  7  1  0
  7  8  1  0
  8  9  1  0
  2 10  1  0
 10 11  2  0
 11 12  1  0
 12 13  2  0
 13 14  1  0
 14 15  1  0
 15 16  2  0
 16 17  1  0
 17 18  2  0
  9  5  1  0
 18 10  1  0
 17 13  1  0
  1 19  1  0
  1 20  1  0
  2 21  1  0
  3 22  1  0
  3 23  1  0
  4 24  1  0
  4 25  1  0
  6 26  1  0
  6 27  1  0
  7 28  1  0
  7 29  1  0
  8 30  1  0
  8 31  1  0
  9 32  1  0
  9 33  1  0
 11 34  1  0
 12 35  1  0
 14 36  1  0
 15 37  1  0
 18 38  1  0
M  END
>  <Energy>  (544) 
115.60114114018252

>  <compound_id>  (544) 
9243

>  <target_id>  (544) 
1

>  <reference_id>  (544) 
30

>  <inspiration_ids>  (544) 
[52, 30]

>  <energy_score>  (544) 
73.90381867563934

>  <distance_score>  (544) 
8.353879373323117

>  <path>  (544) 
/opt/xchem-fragalysis-2/maxwin/BulkDock/SCRATCH/511014/C9243-P30/C9243-P30.minimised.mol

>  <scratch_subdir>  (544) 
/opt/xchem-fragalysis-2/maxwin/BulkDock/SCRATCH/511014/C9243-P30

>  <fragmenstein_runtime>  (544) 
10.277305603027344

>  <fragmenstein_outcome>  (544) 
too moved

>  <fragmenstein_mode>  (544) 
expansion

>  <fragmenstein_error>  (544) 


$$$$
C9244-P52
     RDKit          3D

 41 43  0  0  0  0  0  0  0  0999 V2000
  -11.4379  -25.5904   30.5002 C   0  0  0  0  0  0  0  0  0  0  0  0
  -12.1611  -25.1010   29.3579 N   0  0  0  0  0  0  0  0  0  0  0  0
  -12.3239  -23.7767   29.0792 C   0  0  0  0  0  0  0  0  0  0  0  0
  -12.7844  -23.6107   27.8650 N   0  0  0  0  0  0  0  0  0  0  0  0
  -12.9482  -24.8696   27.3347 C   0  0  0  0  0  0  0  0  0  0  0  0
  -13.2485  -25.2707   25.9967 C   0  0  0  0  0  0  0  0  0  0  0  0
  -12.8267  -26.5756   25.5676 C   0  0  0  0  0  0  0  0  0  0  0  0
  -11.4034  -26.5564   24.5473 C   0  0  0  0  0  0  0  0  0  0  0  0
  -10.8699  -25.1006   25.0738 N   0  0  0  0  0  0  0  0  0  0  0  0
  -10.6101  -27.3281   22.7576 C   0  0  0  0  0  0  0  0  0  0  0  0
  -10.8447  -28.4455   20.9956 C   0  0  0  0  0  0  0  0  0  0  0  0
  -12.0188  -28.8359   19.8706 N   0  0  0  0  0  0  0  0  0  0  0  0
  -12.4097  -30.2415   19.7662 C   0  0  0  0  0  0  0  0  0  0  0  0
  -13.3411  -30.2516   18.5470 C   0  0  0  0  0  0  0  0  0  0  0  0
  -13.0484  -28.9607   17.7914 C   0  0  0  0  0  0  0  0  0  0  0  0
  -11.7882  -28.4404   18.4577 C   0  0  0  0  0  0  0  0  0  0  0  0
  -12.9024  -27.5165   26.6173 C   0  0  0  0  0  0  0  0  0  0  0  0
  -12.7225  -27.1814   27.9849 C   0  0  0  0  0  0  0  0  0  0  0  0
  -12.6056  -25.8279   28.2797 C   0  0  0  0  0  0  0  0  0  0  0  0
  -10.4021  -25.7551   30.1978 H   0  0  0  0  0  0  0  0  0  0  0  0
  -11.8935  -26.5219   30.8433 H   0  0  0  0  0  0  0  0  0  0  0  0
  -11.4692  -24.8452   31.2986 H   0  0  0  0  0  0  0  0  0  0  0  0
  -12.0623  -22.9836   29.7697 H   0  0  0  0  0  0  0  0  0  0  0  0
  -13.3632  -24.4551   25.2866 H   0  0  0  0  0  0  0  0  0  0  0  0
  -10.6113  -26.6854   25.2621 H   0  0  0  0  0  0  0  0  0  0  0  0
   -9.9089  -24.9068   24.7991 H   0  0  0  0  0  0  0  0  0  0  0  0
  -10.8752  -25.0775   26.0973 H   0  0  0  0  0  0  0  0  0  0  0  0
  -10.2557  -26.6100   22.0167 H   0  0  0  0  0  0  0  0  0  0  0  0
   -9.5850  -27.6630   23.2242 H   0  0  0  0  0  0  0  0  0  0  0  0
  -10.3798  -29.4451   20.9125 H   0  0  0  0  0  0  0  0  0  0  0  0
  -10.2378  -27.6220   20.6458 H   0  0  0  0  0  0  0  0  0  0  0  0
  -11.5534  -30.8939   19.5782 H   0  0  0  0  0  0  0  0  0  0  0  0
  -12.9308  -30.6063   20.6551 H   0  0  0  0  0  0  0  0  0  0  0  0
  -14.3933  -30.2790   18.8514 H   0  0  0  0  0  0  0  0  0  0  0  0
  -13.1475  -31.1302   17.9224 H   0  0  0  0  0  0  0  0  0  0  0  0
  -13.8763  -28.2536   17.9233 H   0  0  0  0  0  0  0  0  0  0  0  0
  -12.9130  -29.1318   16.7193 H   0  0  0  0  0  0  0  0  0  0  0  0
  -11.6810  -27.3678   18.2857 H   0  0  0  0  0  0  0  0  0  0  0  0
  -10.9368  -28.9605   18.0092 H   0  0  0  0  0  0  0  0  0  0  0  0
  -12.9767  -28.5729   26.3967 H   0  0  0  0  0  0  0  0  0  0  0  0
  -12.5981  -27.9546   28.7347 H   0  0  0  0  0  0  0  0  0  0  0  0
  1  2  1  0
  2  3  1  0
  3  4  2  0
  4  5  1  0
  5  6  2  0
  6  7  1  0
  7  8  1  0
  8  9  1  0
  8 10  1  0
 10 11  1  0
 11 12  1  0
 12 13  1  0
 13 14  1  0
 14 15  1  0
 15 16  1  0
  7 17  2  0
 17 18  1  0
 18 19  2  0
 19  2  1  0
 19  5  1  0
 16 12  1  0
  1 20  1  0
  1 21  1  0
  1 22  1  0
  3 23  1  0
  6 24  1  0
  8 25  1  0
  9 26  1  0
  9 27  1  0
 10 28  1  0
 10 29  1  0
 11 30  1  0
 11 31  1  0
 13 32  1  0
 13 33  1  0
 14 34  1  0
 14 35  1  0
 15 36  1  0
 15 37  1  0
 16 38  1  0
 16 39  1  0
 17 40  1  0
 18 41  1  0
M  END
>  <Energy>  (545) 
399.77072248700159

>  <compound_id>  (545) 
9244

>  <target_id>  (545) 
1

>  <reference_id>  (545) 
52

>  <inspiration_ids>  (545) 
[52, 30]

>  <energy_score>  (545) 
345.9289644098708

>  <distance_score>  (545) 
6.455542944527756

>  <path>  (545) 
/opt/xchem-fragalysis-2/maxwin/BulkDock/SCRATCH/511014/C9244-P52/C9244-P52.minimised.mol

>  <scratch_subdir>  (545) 
/opt/xchem-fragalysis-2/maxwin/BulkDock/SCRATCH/511014/C9244-P52

>  <fragmenstein_runtime>  (545) 
8.062067031860352

>  <fragmenstein_outcome>  (545) 
too moved

>  <fragmenstein_mode>  (545) 
expansion

>  <fragmenstein_error>  (545) 


$$$$
C9244-P30
     RDKit          3D

 41 43  0  0  0  0  0  0  0  0999 V2000
  -12.3429  -24.2212   26.3052 C   0  0  0  0  0  0  0  0  0  0  0  0
  -12.1270  -22.9529   25.6745 N   0  0  0  0  0  0  0  0  0  0  0  0
  -12.1005  -21.8306   26.4177 C   0  0  0  0  0  0  0  0  0  0  0  0
  -12.3047  -20.8349   25.5762 N   0  0  0  0  0  0  0  0  0  0  0  0
  -12.9129  -21.3802   24.4833 C   0  0  0  0  0  0  0  0  0  0  0  0
  -13.8476  -21.0989   23.4830 C   0  0  0  0  0  0  0  0  0  0  0  0
  -13.5783  -21.7716   22.2875 C   0  0  0  0  0  0  0  0  0  0  0  0
  -14.6301  -22.1427   21.2613 C   0  0  0  0  0  0  0  0  0  0  0  0
  -14.9899  -20.9593   20.4756 N   0  0  0  0  0  0  0  0  0  0  0  0
  -14.2286  -23.3822   20.3543 C   0  0  0  0  0  0  0  0  0  0  0  0
  -15.4086  -24.1532   19.7007 C   0  0  0  0  0  0  0  0  0  0  0  0
  -15.0784  -24.7041   18.3754 N   0  0  0  0  0  0  0  0  0  0  0  0
  -16.2391  -25.0771   17.5631 C   0  0  0  0  0  0  0  0  0  0  0  0
  -15.5959  -25.7994   16.3843 C   0  0  0  0  0  0  0  0  0  0  0  0
  -14.2735  -26.3326   16.9284 C   0  0  0  0  0  0  0  0  0  0  0  0
  -14.2678  -25.9199   18.3949 C   0  0  0  0  0  0  0  0  0  0  0  0
  -12.2260  -22.0071   22.1031 C   0  0  0  0  0  0  0  0  0  0  0  0
  -11.4411  -22.2364   23.2372 C   0  0  0  0  0  0  0  0  0  0  0  0
  -12.2257  -22.5447   24.3448 C   0  0  0  0  0  0  0  0  0  0  0  0
  -11.3953  -24.7622   26.3548 H   0  0  0  0  0  0  0  0  0  0  0  0
  -12.7233  -24.0219   27.2995 H   0  0  0  0  0  0  0  0  0  0  0  0
  -13.1134  -24.7833   25.7714 H   0  0  0  0  0  0  0  0  0  0  0  0
  -11.9159  -21.7773   27.4836 H   0  0  0  0  0  0  0  0  0  0  0  0
  -14.6842  -20.4353   23.6356 H   0  0  0  0  0  0  0  0  0  0  0  0
  -15.5193  -22.4508   21.8266 H   0  0  0  0  0  0  0  0  0  0  0  0
  -15.0712  -20.1653   21.1115 H   0  0  0  0  0  0  0  0  0  0  0  0
  -14.1674  -20.7389   19.8984 H   0  0  0  0  0  0  0  0  0  0  0  0
  -13.6787  -24.1173   20.9483 H   0  0  0  0  0  0  0  0  0  0  0  0
  -13.5261  -23.0341   19.5928 H   0  0  0  0  0  0  0  0  0  0  0  0
  -16.2567  -23.4647   19.5994 H   0  0  0  0  0  0  0  0  0  0  0  0
  -15.7526  -24.9441   20.3794 H   0  0  0  0  0  0  0  0  0  0  0  0
  -16.9077  -25.7556   18.1082 H   0  0  0  0  0  0  0  0  0  0  0  0
  -16.8205  -24.2121   17.2303 H   0  0  0  0  0  0  0  0  0  0  0  0
  -15.4052  -25.1060   15.5568 H   0  0  0  0  0  0  0  0  0  0  0  0
  -16.2365  -26.6048   16.0113 H   0  0  0  0  0  0  0  0  0  0  0  0
  -13.4361  -25.8740   16.3900 H   0  0  0  0  0  0  0  0  0  0  0  0
  -14.1941  -27.4183   16.8152 H   0  0  0  0  0  0  0  0  0  0  0  0
  -13.2592  -25.7677   18.7689 H   0  0  0  0  0  0  0  0  0  0  0  0
  -14.7368  -26.7018   19.0067 H   0  0  0  0  0  0  0  0  0  0  0  0
  -11.7780  -22.0734   21.1188 H   0  0  0  0  0  0  0  0  0  0  0  0
  -10.3651  -22.2686   23.2104 H   0  0  0  0  0  0  0  0  0  0  0  0
  1  2  1  0
  2  3  1  0
  3  4  2  0
  4  5  1  0
  5  6  2  0
  6  7  1  0
  7  8  1  0
  8  9  1  0
  8 10  1  0
 10 11  1  0
 11 12  1  0
 12 13  1  0
 13 14  1  0
 14 15  1  0
 15 16  1  0
  7 17  2  0
 17 18  1  0
 18 19  2  0
 19  2  1  0
 19  5  1  0
 16 12  1  0
  1 20  1  0
  1 21  1  0
  1 22  1  0
  3 23  1  0
  6 24  1  0
  8 25  1  0
  9 26  1  0
  9 27  1  0
 10 28  1  0
 10 29  1  0
 11 30  1  0
 11 31  1  0
 13 32  1  0
 13 33  1  0
 14 34  1  0
 14 35  1  0
 15 36  1  0
 15 37  1  0
 16 38  1  0
 16 39  1  0
 17 40  1  0
 18 41  1  0
M  END
>  <Energy>  (546) 
125.14692082425792

>  <compound_id>  (546) 
9244

>  <target_id>  (546) 
1

>  <reference_id>  (546) 
30

>  <inspiration_ids>  (546) 
[52, 30]

>  <energy_score>  (546) 
71.30516274711965

>  <distance_score>  (546) 
7.26946237255292

>  <path>  (546) 
/opt/xchem-fragalysis-2/maxwin/BulkDock/SCRATCH/511014/C9244-P30/C9244-P30.minimised.mol

>  <scratch_subdir>  (546) 
/opt/xchem-fragalysis-2/maxwin/BulkDock/SCRATCH/511014/C9244-P30

>  <fragmenstein_runtime>  (546) 
8.677202463150024

>  <fragmenstein_outcome>  (546) 
too moved

>  <fragmenstein_mode>  (546) 
expansion

>  <fragmenstein_error>  (546) 


$$$$
C9245-P52
     RDKit          3D

 41 43  0  0  0  0  0  0  0  0999 V2000
  -11.8881  -21.1553   29.9419 C   0  0  0  0  0  0  0  0  0  0  0  0
  -11.6878  -22.3046   29.0328 C   0  0  0  0  0  0  0  0  0  0  0  0
  -12.2209  -22.5225   27.8432 N   0  0  0  0  0  0  0  0  0  0  0  0
  -11.6799  -23.7060   27.3789 C   0  0  0  0  0  0  0  0  0  0  0  0
  -11.8449  -24.4376   26.1540 C   0  0  0  0  0  0  0  0  0  0  0  0
  -11.1576  -25.6754   25.8652 C   0  0  0  0  0  0  0  0  0  0  0  0
  -11.5789  -26.7068   24.5348 C   0  0  0  0  0  0  0  0  0  0  0  0
  -13.2197  -26.4654   24.6192 N   0  0  0  0  0  0  0  0  0  0  0  0
  -10.5888  -27.3319   22.8062 C   0  0  0  0  0  0  0  0  0  0  0  0
  -10.6339  -28.3449   21.0223 C   0  0  0  0  0  0  0  0  0  0  0  0
  -10.8288  -30.0478   20.4204 N   0  0  0  0  0  0  0  0  0  0  0  0
  -11.6557  -31.1203   21.0260 C   0  0  0  0  0  0  0  0  0  0  0  0
  -12.9988  -31.2406   20.2856 C   0  0  0  0  0  0  0  0  0  0  0  0
  -12.8687  -30.4472   18.9997 C   0  0  0  0  0  0  0  0  0  0  0  0
  -11.4012  -30.0612   18.9449 C   0  0  0  0  0  0  0  0  0  0  0  0
  -10.3170  -26.0716   26.9323 C   0  0  0  0  0  0  0  0  0  0  0  0
  -10.1389  -25.3753   28.1569 C   0  0  0  0  0  0  0  0  0  0  0  0
  -10.8402  -24.2145   28.3418 C   0  0  0  0  0  0  0  0  0  0  0  0
  -10.8572  -23.3297   29.3787 N   0  0  0  0  0  0  0  0  0  0  0  0
  -11.0539  -21.0301   30.6369 H   0  0  0  0  0  0  0  0  0  0  0  0
  -12.7924  -21.3023   30.5398 H   0  0  0  0  0  0  0  0  0  0  0  0
  -11.9807  -20.2312   29.3697 H   0  0  0  0  0  0  0  0  0  0  0  0
  -12.5555  -23.9793   25.4794 H   0  0  0  0  0  0  0  0  0  0  0  0
  -12.0376  -27.6025   24.9051 H   0  0  0  0  0  0  0  0  0  0  0  0
  -13.4682  -26.6171   25.6073 H   0  0  0  0  0  0  0  0  0  0  0  0
  -13.4271  -25.4734   24.4833 H   0  0  0  0  0  0  0  0  0  0  0  0
   -9.5774  -27.6743   23.2954 H   0  0  0  0  0  0  0  0  0  0  0  0
  -10.3042  -26.5920   22.0700 H   0  0  0  0  0  0  0  0  0  0  0  0
   -9.9568  -27.5643   20.7142 H   0  0  0  0  0  0  0  0  0  0  0  0
  -11.1687  -28.0880   20.0595 H   0  0  0  0  0  0  0  0  0  0  0  0
  -11.7604  -31.1377   22.1082 H   0  0  0  0  0  0  0  0  0  0  0  0
  -11.1363  -32.0688   20.8347 H   0  0  0  0  0  0  0  0  0  0  0  0
  -13.8258  -30.8555   20.8911 H   0  0  0  0  0  0  0  0  0  0  0  0
  -13.2205  -32.2921   20.0701 H   0  0  0  0  0  0  0  0  0  0  0  0
  -13.5138  -29.5623   19.0216 H   0  0  0  0  0  0  0  0  0  0  0  0
  -13.1641  -31.0419   18.1290 H   0  0  0  0  0  0  0  0  0  0  0  0
  -10.9132  -30.8532   18.3673 H   0  0  0  0  0  0  0  0  0  0  0  0
  -11.2537  -29.1360   18.3793 H   0  0  0  0  0  0  0  0  0  0  0  0
   -9.6346  -26.9039   26.8436 H   0  0  0  0  0  0  0  0  0  0  0  0
   -9.4081  -25.6662   28.8959 H   0  0  0  0  0  0  0  0  0  0  0  0
  -10.3255  -23.3991   30.2353 H   0  0  0  0  0  0  0  0  0  0  0  0
  1  2  1  0
  2  3  2  0
  3  4  1  0
  4  5  2  0
  5  6  1  0
  6  7  1  0
  7  8  1  0
  7  9  1  0
  9 10  1  0
 10 11  1  0
 11 12  1  0
 12 13  1  0
 13 14  1  0
 14 15  1  0
  6 16  2  0
 16 17  1  0
 17 18  2  0
 18 19  1  0
 19  2  1  0
 18  4  1  0
 15 11  1  0
  1 20  1  0
  1 21  1  0
  1 22  1  0
  5 23  1  0
  7 24  1  0
  8 25  1  0
  8 26  1  0
  9 27  1  0
  9 28  1  0
 10 29  1  0
 10 30  1  0
 12 31  1  0
 12 32  1  0
 13 33  1  0
 13 34  1  0
 14 35  1  0
 14 36  1  0
 15 37  1  0
 15 38  1  0
 16 39  1  0
 17 40  1  0
 19 41  1  0
M  END
>  <Energy>  (547) 
388.97221938639598

>  <compound_id>  (547) 
9245

>  <target_id>  (547) 
1

>  <reference_id>  (547) 
52

>  <inspiration_ids>  (547) 
[52, 30]

>  <energy_score>  (547) 
337.27727616868015

>  <distance_score>  (547) 
6.814436216069262

>  <path>  (547) 
/opt/xchem-fragalysis-2/maxwin/BulkDock/SCRATCH/511014/C9245-P52/C9245-P52.minimised.mol

>  <scratch_subdir>  (547) 
/opt/xchem-fragalysis-2/maxwin/BulkDock/SCRATCH/511014/C9245-P52

>  <fragmenstein_runtime>  (547) 
7.671312570571899

>  <fragmenstein_outcome>  (547) 
too moved

>  <fragmenstein_mode>  (547) 
expansion

>  <fragmenstein_error>  (547) 


$$$$
C9245-P30
     RDKit          3D

 41 43  0  0  0  0  0  0  0  0999 V2000
  -14.5680  -21.4003   30.7871 C   0  0  0  0  0  0  0  0  0  0  0  0
  -12.9895  -21.3498   29.7408 C   0  0  0  0  0  0  0  0  0  0  0  0
  -12.6129  -20.6309   28.7176 N   0  0  0  0  0  0  0  0  0  0  0  0
  -12.1735  -21.5133   27.5691 C   0  0  0  0  0  0  0  0  0  0  0  0
  -12.1328  -21.3988   26.1320 C   0  0  0  0  0  0  0  0  0  0  0  0
  -12.5303  -22.3057   25.1353 C   0  0  0  0  0  0  0  0  0  0  0  0
  -12.5021  -21.8998   23.6318 C   0  0  0  0  0  0  0  0  0  0  0  0
  -11.4754  -20.9125   23.3176 N   0  0  0  0  0  0  0  0  0  0  0  0
  -13.7902  -21.6909   22.7728 C   0  0  0  0  0  0  0  0  0  0  0  0
  -13.5337  -21.5731   21.2122 C   0  0  0  0  0  0  0  0  0  0  0  0
  -14.4972  -22.0615   20.1979 N   0  0  0  0  0  0  0  0  0  0  0  0
  -15.9693  -22.0735   20.4557 C   0  0  0  0  0  0  0  0  0  0  0  0
  -16.5512  -23.2829   19.6226 C   0  0  0  0  0  0  0  0  0  0  0  0
  -15.3581  -24.1737   19.1316 C   0  0  0  0  0  0  0  0  0  0  0  0
  -14.0626  -23.3492   19.5185 C   0  0  0  0  0  0  0  0  0  0  0  0
  -12.9045  -23.4881   25.6813 C   0  0  0  0  0  0  0  0  0  0  0  0
  -12.5463  -23.7928   27.0075 C   0  0  0  0  0  0  0  0  0  0  0  0
  -12.1822  -22.7840   27.9666 C   0  0  0  0  0  0  0  0  0  0  0  0
  -12.3204  -22.5578   29.3614 N   0  0  0  0  0  0  0  0  0  0  0  0
  -15.0922  -22.3612   30.7169 H   0  0  0  0  0  0  0  0  0  0  0  0
  -15.3389  -20.6103   30.6938 H   0  0  0  0  0  0  0  0  0  0  0  0
  -14.4441  -21.2295   31.8541 H   0  0  0  0  0  0  0  0  0  0  0  0
  -12.0562  -20.4818   25.6107 H   0  0  0  0  0  0  0  0  0  0  0  0
  -12.0083  -22.7318   23.1937 H   0  0  0  0  0  0  0  0  0  0  0  0
  -10.9993  -21.1415   22.4453 H   0  0  0  0  0  0  0  0  0  0  0  0
  -11.8942  -19.9906   23.1436 H   0  0  0  0  0  0  0  0  0  0  0  0
  -14.2941  -20.7725   23.1026 H   0  0  0  0  0  0  0  0  0  0  0  0
  -14.4810  -22.4914   23.0238 H   0  0  0  0  0  0  0  0  0  0  0  0
  -12.5501  -22.0003   20.9842 H   0  0  0  0  0  0  0  0  0  0  0  0
  -13.4150  -20.5000   21.0112 H   0  0  0  0  0  0  0  0  0  0  0  0
  -16.4433  -21.1267   20.1679 H   0  0  0  0  0  0  0  0  0  0  0  0
  -16.2415  -22.1762   21.5149 H   0  0  0  0  0  0  0  0  0  0  0  0
  -17.1306  -22.9153   18.7678 H   0  0  0  0  0  0  0  0  0  0  0  0
  -17.2566  -23.8625   20.2274 H   0  0  0  0  0  0  0  0  0  0  0  0
  -15.4413  -24.4187   18.0618 H   0  0  0  0  0  0  0  0  0  0  0  0
  -15.3597  -25.1912   19.5249 H   0  0  0  0  0  0  0  0  0  0  0  0
  -13.3294  -23.9172   20.0930 H   0  0  0  0  0  0  0  0  0  0  0  0
  -13.4957  -23.1275   18.6291 H   0  0  0  0  0  0  0  0  0  0  0  0
  -13.4654  -24.2158   25.1055 H   0  0  0  0  0  0  0  0  0  0  0  0
  -12.8769  -24.7767   27.2662 H   0  0  0  0  0  0  0  0  0  0  0  0
  -12.8908  -23.2412   29.7779 H   0  0  0  0  0  0  0  0  0  0  0  0
  1  2  1  0
  2  3  2  0
  3  4  1  0
  4  5  2  0
  5  6  1  0
  6  7  1  0
  7  8  1  0
  7  9  1  0
  9 10  1  0
 10 11  1  0
 11 12  1  0
 12 13  1  0
 13 14  1  0
 14 15  1  0
  6 16  2  0
 16 17  1  0
 17 18  2  0
 18 19  1  0
 19  2  1  0
 18  4  1  0
 15 11  1  0
  1 20  1  0
  1 21  1  0
  1 22  1  0
  5 23  1  0
  7 24  1  0
  8 25  1  0
  8 26  1  0
  9 27  1  0
  9 28  1  0
 10 29  1  0
 10 30  1  0
 12 31  1  0
 12 32  1  0
 13 33  1  0
 13 34  1  0
 14 35  1  0
 14 36  1  0
 15 37  1  0
 15 38  1  0
 16 39  1  0
 17 40  1  0
 19 41  1  0
M  END
>  <Energy>  (548) 
181.22534367226595

>  <compound_id>  (548) 
9245

>  <target_id>  (548) 
1

>  <reference_id>  (548) 
30

>  <inspiration_ids>  (548) 
[52, 30]

>  <energy_score>  (548) 
129.53040045454986

>  <distance_score>  (548) 
7.066203378960156

>  <path>  (548) 
/opt/xchem-fragalysis-2/maxwin/BulkDock/SCRATCH/511014/C9245-P30/C9245-P30.minimised.mol

>  <scratch_subdir>  (548) 
/opt/xchem-fragalysis-2/maxwin/BulkDock/SCRATCH/511014/C9245-P30

>  <fragmenstein_runtime>  (548) 
9.276126384735107

>  <fragmenstein_outcome>  (548) 
too moved

>  <fragmenstein_mode>  (548) 
expansion

>  <fragmenstein_error>  (548) 


$$$$
C9246-P52
     RDKit          3D

 43 45  0  0  0  0  0  0  0  0999 V2000
  -13.3213  -25.3021   19.9626 C   0  0  0  0  0  0  0  0  0  0  0  0
  -13.4120  -24.7913   18.5870 C   0  0  0  0  0  0  0  0  0  0  0  0
  -14.6434  -24.8005   17.6559 C   0  0  0  0  0  0  0  0  0  0  0  0
  -12.8018  -23.2645   19.2503 N   0  0  0  0  0  0  0  0  0  0  0  0
  -11.9245  -22.6479   20.7455 C   0  0  0  0  0  0  0  0  0  0  0  0
  -11.9721  -22.1569   22.4730 C   0  0  0  0  0  0  0  0  0  0  0  0
  -12.9480  -22.1662   23.4191 N   0  0  0  0  0  0  0  0  0  0  0  0
  -12.3346  -22.3870   24.6724 C   0  0  0  0  0  0  0  0  0  0  0  0
  -12.7238  -22.7629   25.9856 C   0  0  0  0  0  0  0  0  0  0  0  0
  -12.5355  -21.8156   26.9375 F   0  0  0  0  0  0  0  0  0  0  0  0
  -12.2630  -23.9538   26.5550 C   0  0  0  0  0  0  0  0  0  0  0  0
  -11.0034  -24.3487   26.1977 C   0  0  0  0  0  0  0  0  0  0  0  0
  -10.3386  -23.6379   25.1911 C   0  0  0  0  0  0  0  0  0  0  0  0
  -11.0414  -22.7144   24.3916 C   0  0  0  0  0  0  0  0  0  0  0  0
  -10.7754  -22.0654   23.1777 N   0  0  0  0  0  0  0  0  0  0  0  0
  -12.6845  -26.3162   17.8188 C   0  0  0  0  0  0  0  0  0  0  0  0
  -12.8387  -27.3204   18.4761 O   0  0  0  0  0  0  0  0  0  0  0  0
  -11.9607  -26.1126   16.6145 N   0  0  0  0  0  0  0  0  0  0  0  0
  -12.8685  -26.3373   15.3990 C   0  0  0  0  0  0  0  0  0  0  0  0
  -12.1600  -26.0762   14.0819 C   0  0  0  0  0  0  0  0  0  0  0  0
  -10.7843  -26.4956   14.4563 C   0  0  0  0  0  0  0  0  0  0  0  0
  -11.0737  -27.0327   15.8362 C   0  0  0  0  0  0  0  0  0  0  0  0
  -13.6528  -26.3260   19.9913 H   0  0  0  0  0  0  0  0  0  0  0  0
  -12.3244  -25.0086   20.1957 H   0  0  0  0  0  0  0  0  0  0  0  0
  -13.7564  -24.9291   20.8723 H   0  0  0  0  0  0  0  0  0  0  0  0
  -15.5827  -24.3998   18.0138 H   0  0  0  0  0  0  0  0  0  0  0  0
  -14.9292  -25.8265   17.3861 H   0  0  0  0  0  0  0  0  0  0  0  0
  -14.4039  -24.2968   16.7243 H   0  0  0  0  0  0  0  0  0  0  0  0
  -13.1125  -22.4737   18.7197 H   0  0  0  0  0  0  0  0  0  0  0  0
  -11.5148  -21.7124   20.3738 H   0  0  0  0  0  0  0  0  0  0  0  0
  -12.8991  -22.6728   21.1043 H   0  0  0  0  0  0  0  0  0  0  0  0
  -12.6875  -24.3059   27.4899 H   0  0  0  0  0  0  0  0  0  0  0  0
  -10.5278  -25.1534   26.7472 H   0  0  0  0  0  0  0  0  0  0  0  0
   -9.3367  -23.8710   24.8789 H   0  0  0  0  0  0  0  0  0  0  0  0
   -9.8884  -22.1532   22.6990 H   0  0  0  0  0  0  0  0  0  0  0  0
  -13.3357  -27.3373   15.4473 H   0  0  0  0  0  0  0  0  0  0  0  0
  -13.7227  -25.6626   15.4463 H   0  0  0  0  0  0  0  0  0  0  0  0
  -12.5907  -26.6679   13.2688 H   0  0  0  0  0  0  0  0  0  0  0  0
  -12.1894  -25.0210   13.7938 H   0  0  0  0  0  0  0  0  0  0  0  0
  -10.3574  -27.2505   13.7910 H   0  0  0  0  0  0  0  0  0  0  0  0
  -10.1066  -25.6359   14.4966 H   0  0  0  0  0  0  0  0  0  0  0  0
  -11.4375  -28.0740   15.8597 H   0  0  0  0  0  0  0  0  0  0  0  0
  -10.1356  -27.0762   16.4047 H   0  0  0  0  0  0  0  0  0  0  0  0
  1  2  1  0
  2  3  1  0
  2  4  1  0
  4  5  1  0
  5  6  1  0
  6  7  2  0
  7  8  1  0
  8  9  2  0
  9 10  1  0
  9 11  1  0
 11 12  2  0
 12 13  1  0
 13 14  2  0
 14 15  1  0
  2 16  1  0
 16 17  2  0
 16 18  1  0
 18 19  1  0
 19 20  1  0
 20 21  1  0
 21 22  1  0
 15  6  1  0
 22 18  1  0
 14  8  1  0
  1 23  1  0
  1 24  1  0
  1 25  1  0
  3 26  1  0
  3 27  1  0
  3 28  1  0
  4 29  1  0
  5 30  1  0
  5 31  1  0
 11 32  1  0
 12 33  1  0
 13 34  1  0
 15 35  1  0
 19 36  1  0
 19 37  1  0
 20 38  1  0
 20 39  1  0
 21 40  1  0
 21 41  1  0
 22 42  1  0
 22 43  1  0
M  END
>  <Energy>  (549) 
489.02452084197643

>  <compound_id>  (549) 
9246

>  <target_id>  (549) 
1

>  <reference_id>  (549) 
52

>  <inspiration_ids>  (549) 
[52, 30]

>  <energy_score>  (549) 
352.5437301780298

>  <distance_score>  (549) 
6.157523929316649

>  <path>  (549) 
/opt/xchem-fragalysis-2/maxwin/BulkDock/SCRATCH/511014/C9246-P52/C9246-P52.minimised.mol

>  <scratch_subdir>  (549) 
/opt/xchem-fragalysis-2/maxwin/BulkDock/SCRATCH/511014/C9246-P52

>  <fragmenstein_runtime>  (549) 
16.516704559326172

>  <fragmenstein_outcome>  (549) 
too moved

>  <fragmenstein_mode>  (549) 
expansion

>  <fragmenstein_error>  (549) 


$$$$
C9246-P30
     RDKit          3D

 43 45  0  0  0  0  0  0  0  0999 V2000
  -14.4985  -26.6803   19.2381 C   0  0  0  0  0  0  0  0  0  0  0  0
  -13.6450  -25.4629   18.8320 C   0  0  0  0  0  0  0  0  0  0  0  0
  -14.4901  -24.7328   17.7827 C   0  0  0  0  0  0  0  0  0  0  0  0
  -12.8315  -24.5072   20.1070 N   0  0  0  0  0  0  0  0  0  0  0  0
  -12.5390  -22.9654   21.0562 C   0  0  0  0  0  0  0  0  0  0  0  0
  -12.6182  -22.4423   22.8204 C   0  0  0  0  0  0  0  0  0  0  0  0
  -13.5036  -22.3594   23.8727 N   0  0  0  0  0  0  0  0  0  0  0  0
  -12.7474  -22.6182   25.1434 C   0  0  0  0  0  0  0  0  0  0  0  0
  -12.6510  -22.6517   26.5896 C   0  0  0  0  0  0  0  0  0  0  0  0
  -13.2017  -21.8446   27.4631 F   0  0  0  0  0  0  0  0  0  0  0  0
  -11.7197  -23.3237   27.3858 C   0  0  0  0  0  0  0  0  0  0  0  0
  -10.8144  -24.1510   26.8613 C   0  0  0  0  0  0  0  0  0  0  0  0
  -10.6608  -23.9488   25.5344 C   0  0  0  0  0  0  0  0  0  0  0  0
  -11.5354  -23.0212   24.7061 C   0  0  0  0  0  0  0  0  0  0  0  0
  -11.3794  -22.3421   23.4630 N   0  0  0  0  0  0  0  0  0  0  0  0
  -12.5097  -26.3615   17.8495 C   0  0  0  0  0  0  0  0  0  0  0  0
  -11.7330  -27.0541   18.4370 O   0  0  0  0  0  0  0  0  0  0  0  0
  -12.6100  -26.0633   16.4543 N   0  0  0  0  0  0  0  0  0  0  0  0
  -13.5268  -27.0648   15.7602 C   0  0  0  0  0  0  0  0  0  0  0  0
  -13.7631  -26.6531   14.3211 C   0  0  0  0  0  0  0  0  0  0  0  0
  -12.3936  -26.1750   13.9796 C   0  0  0  0  0  0  0  0  0  0  0  0
  -11.7160  -26.4302   15.3066 C   0  0  0  0  0  0  0  0  0  0  0  0
  -13.8631  -27.5012   19.5456 H   0  0  0  0  0  0  0  0  0  0  0  0
  -15.2951  -26.5079   19.9469 H   0  0  0  0  0  0  0  0  0  0  0  0
  -15.0295  -27.0943   18.3709 H   0  0  0  0  0  0  0  0  0  0  0  0
  -14.8012  -25.3432   16.9394 H   0  0  0  0  0  0  0  0  0  0  0  0
  -13.9129  -23.9404   17.3272 H   0  0  0  0  0  0  0  0  0  0  0  0
  -15.4745  -24.4342   18.1120 H   0  0  0  0  0  0  0  0  0  0  0  0
  -12.7946  -23.8283   19.3564 H   0  0  0  0  0  0  0  0  0  0  0  0
  -11.4736  -23.1124   21.1121 H   0  0  0  0  0  0  0  0  0  0  0  0
  -12.4770  -22.1153   20.3879 H   0  0  0  0  0  0  0  0  0  0  0  0
  -11.7414  -23.1160   28.4505 H   0  0  0  0  0  0  0  0  0  0  0  0
  -10.1169  -24.6885   27.4738 H   0  0  0  0  0  0  0  0  0  0  0  0
   -9.7369  -24.3313   25.1340 H   0  0  0  0  0  0  0  0  0  0  0  0
  -10.5091  -22.3582   22.9437 H   0  0  0  0  0  0  0  0  0  0  0  0
  -13.1467  -28.0976   15.8677 H   0  0  0  0  0  0  0  0  0  0  0  0
  -14.4887  -27.1243   16.2753 H   0  0  0  0  0  0  0  0  0  0  0  0
  -14.1029  -27.4879   13.7021 H   0  0  0  0  0  0  0  0  0  0  0  0
  -14.4929  -25.8397   14.2501 H   0  0  0  0  0  0  0  0  0  0  0  0
  -11.9252  -26.7299   13.1623 H   0  0  0  0  0  0  0  0  0  0  0  0
  -12.4002  -25.1100   13.7241 H   0  0  0  0  0  0  0  0  0  0  0  0
  -11.2809  -27.4373   15.4223 H   0  0  0  0  0  0  0  0  0  0  0  0
  -10.8461  -25.7671   15.3904 H   0  0  0  0  0  0  0  0  0  0  0  0
  1  2  1  0
  2  3  1  0
  2  4  1  0
  4  5  1  0
  5  6  1  0
  6  7  2  0
  7  8  1  0
  8  9  2  0
  9 10  1  0
  9 11  1  0
 11 12  2  0
 12 13  1  0
 13 14  2  0
 14 15  1  0
  2 16  1  0
 16 17  2  0
 16 18  1  0
 18 19  1  0
 19 20  1  0
 20 21  1  0
 21 22  1  0
 15  6  1  0
 22 18  1  0
 14  8  1  0
  1 23  1  0
  1 24  1  0
  1 25  1  0
  3 26  1  0
  3 27  1  0
  3 28  1  0
  4 29  1  0
  5 30  1  0
  5 31  1  0
 11 32  1  0
 12 33  1  0
 13 34  1  0
 15 35  1  0
 19 36  1  0
 19 37  1  0
 20 38  1  0
 20 39  1  0
 21 40  1  0
 21 41  1  0
 22 42  1  0
 22 43  1  0
M  END
>  <Energy>  (550) 
439.96716111441316

>  <compound_id>  (550) 
9246

>  <target_id>  (550) 
1

>  <reference_id>  (550) 
30

>  <inspiration_ids>  (550) 
[52, 30]

>  <energy_score>  (550) 
303.48637045046326

>  <distance_score>  (550) 
5.788069017830312

>  <path>  (550) 
/opt/xchem-fragalysis-2/maxwin/BulkDock/SCRATCH/511014/C9246-P30/C9246-P30.minimised.mol

>  <scratch_subdir>  (550) 
/opt/xchem-fragalysis-2/maxwin/BulkDock/SCRATCH/511014/C9246-P30

>  <fragmenstein_runtime>  (550) 
12.971672773361206

>  <fragmenstein_outcome>  (550) 
too moved

>  <fragmenstein_mode>  (550) 
expansion

>  <fragmenstein_error>  (550) 


$$$$
C9247-P52
     RDKit          3D

 39 41  0  0  0  0  0  0  0  0999 V2000
  -10.6499  -29.7093   20.9327 C   0  0  0  0  0  0  0  0  0  0  0  0
  -10.5438  -27.7365   21.4995 C   0  0  0  0  0  0  0  0  0  0  0  0
  -11.3773  -27.3968   23.4916 N   0  0  0  0  0  0  0  0  0  0  0  0
  -11.0969  -26.1421   24.8255 C   0  0  0  0  0  0  0  0  0  0  0  0
  -10.2867  -25.2436   24.9101 O   0  0  0  0  0  0  0  0  0  0  0  0
  -12.0669  -26.1013   26.0544 C   0  0  0  0  0  0  0  0  0  0  0  0
  -12.9954  -27.0806   26.4194 C   0  0  0  0  0  0  0  0  0  0  0  0
  -13.6881  -27.0549   27.6377 C   0  0  0  0  0  0  0  0  0  0  0  0
  -14.8856  -28.4712   28.0324 Br  0  0  0  0  0  0  0  0  0  0  0  0
  -13.5150  -26.0446   28.5761 C   0  0  0  0  0  0  0  0  0  0  0  0
  -12.6209  -25.0405   28.2295 C   0  0  0  0  0  0  0  0  0  0  0  0
  -12.2194  -23.9128   28.9123 N   0  0  0  0  0  0  0  0  0  0  0  0
  -11.3309  -23.2480   28.1264 C   0  0  0  0  0  0  0  0  0  0  0  0
  -11.1272  -23.8888   27.0013 N   0  0  0  0  0  0  0  0  0  0  0  0
  -11.9121  -25.0294   27.0190 C   0  0  0  0  0  0  0  0  0  0  0  0
  -11.2592  -27.8834   19.4254 C   0  0  0  0  0  0  0  0  0  0  0  0
  -10.5322  -27.2753   18.6735 O   0  0  0  0  0  0  0  0  0  0  0  0
  -12.6188  -28.5539   18.9160 N   0  0  0  0  0  0  0  0  0  0  0  0
  -12.3811  -30.0192   18.4530 C   0  0  0  0  0  0  0  0  0  0  0  0
  -13.6130  -30.6922   17.8418 C   0  0  0  0  0  0  0  0  0  0  0  0
  -14.3922  -29.5193   17.3987 C   0  0  0  0  0  0  0  0  0  0  0  0
  -13.3150  -28.5085   17.5956 C   0  0  0  0  0  0  0  0  0  0  0  0
  -11.5581  -30.2914   21.2400 H   0  0  0  0  0  0  0  0  0  0  0  0
  -10.0603  -30.4789   21.4845 H   0  0  0  0  0  0  0  0  0  0  0  0
  -10.6614  -29.8961   19.8803 H   0  0  0  0  0  0  0  0  0  0  0  0
   -9.9810  -26.8294   21.3192 H   0  0  0  0  0  0  0  0  0  0  0  0
  -12.1958  -27.9416   23.7101 H   0  0  0  0  0  0  0  0  0  0  0  0
  -13.1317  -27.9421   25.7971 H   0  0  0  0  0  0  0  0  0  0  0  0
  -14.0550  -26.0484   29.5110 H   0  0  0  0  0  0  0  0  0  0  0  0
  -12.5228  -23.6203   29.8320 H   0  0  0  0  0  0  0  0  0  0  0  0
  -10.8640  -22.3146   28.4172 H   0  0  0  0  0  0  0  0  0  0  0  0
  -11.4942  -30.0685   17.8017 H   0  0  0  0  0  0  0  0  0  0  0  0
  -12.1923  -30.6592   19.3120 H   0  0  0  0  0  0  0  0  0  0  0  0
  -13.3286  -31.3619   17.0238 H   0  0  0  0  0  0  0  0  0  0  0  0
  -14.1700  -31.2779   18.5815 H   0  0  0  0  0  0  0  0  0  0  0  0
  -14.7382  -29.5851   16.3641 H   0  0  0  0  0  0  0  0  0  0  0  0
  -15.2523  -29.3348   18.0500 H   0  0  0  0  0  0  0  0  0  0  0  0
  -13.7691  -27.5084   17.5674 H   0  0  0  0  0  0  0  0  0  0  0  0
  -12.5796  -28.4687   16.7726 H   0  0  0  0  0  0  0  0  0  0  0  0
  1  2  1  0
  2  3  1  0
  3  4  1  0
  4  5  2  0
  4  6  1  0
  6  7  2  0
  7  8  1  0
  8  9  1  0
  8 10  2  0
 10 11  1  0
 11 12  1  0
 12 13  1  0
 13 14  2  0
 14 15  1  0
  2 16  1  0
 16 17  2  0
 16 18  1  0
 18 19  1  0
 19 20  1  0
 20 21  1  0
 21 22  1  0
 15  6  1  0
 22 18  1  0
 15 11  2  0
  1 23  1  0
  1 24  1  0
  1 25  1  0
  2 26  1  0
  3 27  1  0
  7 28  1  0
 10 29  1  0
 12 30  1  0
 13 31  1  0
 19 32  1  0
 19 33  1  0
 20 34  1  0
 20 35  1  0
 21 36  1  0
 21 37  1  0
 22 38  1  0
 22 39  1  0
M  END
>  <Energy>  (551) 
615.07640914219371

>  <compound_id>  (551) 
9247

>  <target_id>  (551) 
1

>  <reference_id>  (551) 
52

>  <inspiration_ids>  (551) 
[52, 30]

>  <energy_score>  (551) 
547.0515770812078

>  <distance_score>  (551) 
6.228835632688581

>  <path>  (551) 
/opt/xchem-fragalysis-2/maxwin/BulkDock/SCRATCH/511014/C9247-P52/C9247-P52.minimised.mol

>  <scratch_subdir>  (551) 
/opt/xchem-fragalysis-2/maxwin/BulkDock/SCRATCH/511014/C9247-P52

>  <fragmenstein_runtime>  (551) 
7.374134540557861

>  <fragmenstein_outcome>  (551) 
too moved

>  <fragmenstein_mode>  (551) 
expansion

>  <fragmenstein_error>  (551) 


$$$$
C9247-P30
     RDKit          3D

 39 41  0  0  0  0  0  0  0  0999 V2000
  -11.7319  -28.0545   19.8535 C   0  0  0  0  0  0  0  0  0  0  0  0
  -10.4785  -26.8722   21.2052 C   0  0  0  0  0  0  0  0  0  0  0  0
  -10.6766  -26.9760   23.4377 N   0  0  0  0  0  0  0  0  0  0  0  0
  -10.6274  -25.5790   24.9571 C   0  0  0  0  0  0  0  0  0  0  0  0
  -10.3490  -24.3463   24.8041 O   0  0  0  0  0  0  0  0  0  0  0  0
  -11.0739  -25.8409   26.5457 C   0  0  0  0  0  0  0  0  0  0  0  0
  -10.3229  -25.4618   27.9483 C   0  0  0  0  0  0  0  0  0  0  0  0
  -10.1859  -24.2185   29.1254 C   0  0  0  0  0  0  0  0  0  0  0  0
   -9.9132  -24.1635   31.7122 Br  0  0  0  0  0  0  0  0  0  0  0  0
  -10.8661  -23.1223   28.5357 C   0  0  0  0  0  0  0  0  0  0  0  0
  -11.6966  -23.4355   27.3546 C   0  0  0  0  0  0  0  0  0  0  0  0
  -12.5091  -22.5929   26.6422 N   0  0  0  0  0  0  0  0  0  0  0  0
  -13.3089  -23.3111   25.8037 C   0  0  0  0  0  0  0  0  0  0  0  0
  -13.1226  -24.5968   25.9348 N   0  0  0  0  0  0  0  0  0  0  0  0
  -11.9444  -24.6785   26.6520 C   0  0  0  0  0  0  0  0  0  0  0  0
  -11.3663  -26.5478   19.1767 C   0  0  0  0  0  0  0  0  0  0  0  0
  -10.7632  -26.7901   18.1377 O   0  0  0  0  0  0  0  0  0  0  0  0
  -12.9883  -25.7695   19.0695 N   0  0  0  0  0  0  0  0  0  0  0  0
  -14.1285  -26.8228   18.9844 C   0  0  0  0  0  0  0  0  0  0  0  0
  -14.2497  -27.4009   17.5655 C   0  0  0  0  0  0  0  0  0  0  0  0
  -13.8574  -26.2238   16.7481 C   0  0  0  0  0  0  0  0  0  0  0  0
  -13.7918  -25.2102   17.8589 C   0  0  0  0  0  0  0  0  0  0  0  0
  -11.8642  -28.2351   18.7033 H   0  0  0  0  0  0  0  0  0  0  0  0
  -12.7821  -28.0835   19.9825 H   0  0  0  0  0  0  0  0  0  0  0  0
  -11.4387  -29.2111   19.7255 H   0  0  0  0  0  0  0  0  0  0  0  0
  -10.2619  -25.7989   21.1961 H   0  0  0  0  0  0  0  0  0  0  0  0
  -10.9777  -27.7839   23.7689 H   0  0  0  0  0  0  0  0  0  0  0  0
  -10.4066  -26.4475   28.4718 H   0  0  0  0  0  0  0  0  0  0  0  0
  -11.0266  -22.1716   29.0304 H   0  0  0  0  0  0  0  0  0  0  0  0
  -12.5575  -21.5933   26.7499 H   0  0  0  0  0  0  0  0  0  0  0  0
  -14.0369  -22.8497   25.1489 H   0  0  0  0  0  0  0  0  0  0  0  0
  -14.2552  -27.6468   19.6335 H   0  0  0  0  0  0  0  0  0  0  0  0
  -15.0655  -26.3148   19.2837 H   0  0  0  0  0  0  0  0  0  0  0  0
  -13.5833  -28.2496   17.3912 H   0  0  0  0  0  0  0  0  0  0  0  0
  -15.2751  -27.7291   17.3663 H   0  0  0  0  0  0  0  0  0  0  0  0
  -12.8809  -26.3683   16.2753 H   0  0  0  0  0  0  0  0  0  0  0  0
  -14.5912  -25.9641   15.9806 H   0  0  0  0  0  0  0  0  0  0  0  0
  -13.4071  -24.2896   17.4570 H   0  0  0  0  0  0  0  0  0  0  0  0
  -14.7848  -24.8525   18.1835 H   0  0  0  0  0  0  0  0  0  0  0  0
  1  2  1  0
  2  3  1  0
  3  4  1  0
  4  5  2  0
  4  6  1  0
  6  7  2  0
  7  8  1  0
  8  9  1  0
  8 10  2  0
 10 11  1  0
 11 12  1  0
 12 13  1  0
 13 14  2  0
 14 15  1  0
  2 16  1  0
 16 17  2  0
 16 18  1  0
 18 19  1  0
 19 20  1  0
 20 21  1  0
 21 22  1  0
 15  6  1  0
 22 18  1  0
 15 11  2  0
  1 23  1  0
  1 24  1  0
  1 25  1  0
  2 26  1  0
  3 27  1  0
  7 28  1  0
 10 29  1  0
 12 30  1  0
 13 31  1  0
 19 32  1  0
 19 33  1  0
 20 34  1  0
 20 35  1  0
 21 36  1  0
 21 37  1  0
 22 38  1  0
 22 39  1  0
M  END
>  <Energy>  (552) 
1259.5143029541784

>  <compound_id>  (552) 
9247

>  <target_id>  (552) 
1

>  <reference_id>  (552) 
30

>  <inspiration_ids>  (552) 
[52, 30]

>  <energy_score>  (552) 
1191.4894708931834

>  <distance_score>  (552) 
5.59474985068638

>  <path>  (552) 
/opt/xchem-fragalysis-2/maxwin/BulkDock/SCRATCH/511014/C9247-P30/C9247-P30.minimised.mol

>  <scratch_subdir>  (552) 
/opt/xchem-fragalysis-2/maxwin/BulkDock/SCRATCH/511014/C9247-P30

>  <fragmenstein_runtime>  (552) 
11.594161748886108

>  <fragmenstein_outcome>  (552) 
too moved

>  <fragmenstein_mode>  (552) 
expansion

>  <fragmenstein_error>  (552) 


$$$$
C9249-P52
     RDKit          3D

 43 45  0  0  0  0  0  0  0  0999 V2000
  -11.9763  -22.1852   23.6895 C   0  0  0  0  0  0  0  0  0  0  0  0
  -13.0266  -23.0270   24.3521 N   0  0  0  0  0  0  0  0  0  0  0  0
  -13.4102  -23.4400   22.6264 C   0  0  0  0  0  0  0  0  0  0  0  0
  -13.5103  -24.7544   21.0197 C   0  0  0  0  0  0  0  0  0  0  0  0
  -13.4221  -25.5461   19.2652 C   0  0  0  0  0  0  0  0  0  0  0  0
  -13.8544  -25.2628   17.8194 N   0  0  0  0  0  0  0  0  0  0  0  0
  -13.2112  -26.3282   16.9541 C   0  0  0  0  0  0  0  0  0  0  0  0
  -13.9092  -26.2595   15.6042 C   0  0  0  0  0  0  0  0  0  0  0  0
  -15.2362  -25.6006   15.9083 C   0  0  0  0  0  0  0  0  0  0  0  0
  -15.2622  -25.4682   17.4277 C   0  0  0  0  0  0  0  0  0  0  0  0
  -12.3999  -23.8826   25.4703 C   0  0  0  0  0  0  0  0  0  0  0  0
  -11.9332  -25.0064   25.4300 O   0  0  0  0  0  0  0  0  0  0  0  0
  -12.1928  -23.2967   26.8215 C   0  0  0  0  0  0  0  0  0  0  0  0
  -12.1581  -22.0649   27.2958 N   0  0  0  0  0  0  0  0  0  0  0  0
  -11.8108  -22.1713   28.6408 C   0  0  0  0  0  0  0  0  0  0  0  0
  -11.6727  -21.1885   29.6334 C   0  0  0  0  0  0  0  0  0  0  0  0
  -11.3349  -21.5638   30.9430 C   0  0  0  0  0  0  0  0  0  0  0  0
  -11.0595  -22.8966   31.2437 C   0  0  0  0  0  0  0  0  0  0  0  0
  -10.3995  -23.3247   32.9658 Br  0  0  0  0  0  0  0  0  0  0  0  0
  -11.1847  -23.9013   30.2777 C   0  0  0  0  0  0  0  0  0  0  0  0
  -11.5874  -23.4911   28.9993 C   0  0  0  0  0  0  0  0  0  0  0  0
  -11.8189  -24.1703   27.8412 N   0  0  0  0  0  0  0  0  0  0  0  0
  -11.9875  -21.2627   24.2815 H   0  0  0  0  0  0  0  0  0  0  0  0
  -10.9780  -22.6018   23.8353 H   0  0  0  0  0  0  0  0  0  0  0  0
  -12.1056  -21.8297   22.6644 H   0  0  0  0  0  0  0  0  0  0  0  0
  -13.6259  -24.3704   23.2094 H   0  0  0  0  0  0  0  0  0  0  0  0
  -14.3031  -22.9637   22.8871 H   0  0  0  0  0  0  0  0  0  0  0  0
  -13.8341  -25.6612   21.4796 H   0  0  0  0  0  0  0  0  0  0  0  0
  -12.6671  -24.2922   20.4481 H   0  0  0  0  0  0  0  0  0  0  0  0
  -13.8699  -26.5365   19.4646 H   0  0  0  0  0  0  0  0  0  0  0  0
  -12.4487  -25.8855   19.0548 H   0  0  0  0  0  0  0  0  0  0  0  0
  -12.1287  -26.2081   16.8502 H   0  0  0  0  0  0  0  0  0  0  0  0
  -13.3848  -27.3246   17.3859 H   0  0  0  0  0  0  0  0  0  0  0  0
  -13.3454  -25.6664   14.8772 H   0  0  0  0  0  0  0  0  0  0  0  0
  -14.0447  -27.2609   15.1820 H   0  0  0  0  0  0  0  0  0  0  0  0
  -15.2813  -24.6206   15.4235 H   0  0  0  0  0  0  0  0  0  0  0  0
  -16.0812  -26.1917   15.5411 H   0  0  0  0  0  0  0  0  0  0  0  0
  -15.6658  -26.3969   17.8531 H   0  0  0  0  0  0  0  0  0  0  0  0
  -15.9158  -24.6419   17.7022 H   0  0  0  0  0  0  0  0  0  0  0  0
  -11.8091  -20.1466   29.3747 H   0  0  0  0  0  0  0  0  0  0  0  0
  -11.2175  -20.7902   31.6985 H   0  0  0  0  0  0  0  0  0  0  0  0
  -10.9599  -24.9377   30.5016 H   0  0  0  0  0  0  0  0  0  0  0  0
  -11.6976  -25.1603   27.6817 H   0  0  0  0  0  0  0  0  0  0  0  0
  1  2  1  0
  2  3  1  0
  3  4  1  0
  4  5  1  0
  5  6  1  0
  6  7  1  0
  7  8  1  0
  8  9  1  0
  9 10  1  0
  2 11  1  0
 11 12  2  0
 11 13  1  0
 13 14  2  0
 14 15  1  0
 15 16  2  0
 16 17  1  0
 17 18  2  0
 18 19  1  0
 18 20  1  0
 20 21  2  0
 21 22  1  0
 10  6  1  0
 22 13  1  0
 21 15  1  0
  1 23  1  0
  1 24  1  0
  1 25  1  0
  3 26  1  0
  3 27  1  0
  4 28  1  0
  4 29  1  0
  5 30  1  0
  5 31  1  0
  7 32  1  0
  7 33  1  0
  8 34  1  0
  8 35  1  0
  9 36  1  0
  9 37  1  0
 10 38  1  0
 10 39  1  0
 16 40  1  0
 17 41  1  0
 20 42  1  0
 22 43  1  0
M  END
>  <Energy>  (553) 
419.16698335928527

>  <compound_id>  (553) 
9249

>  <target_id>  (553) 
1

>  <reference_id>  (553) 
52

>  <inspiration_ids>  (553) 
[52, 30]

>  <energy_score>  (553) 
358.3015962428533

>  <distance_score>  (553) 
4.374532667443421

>  <path>  (553) 
/opt/xchem-fragalysis-2/maxwin/BulkDock/SCRATCH/511014/C9249-P52/C9249-P52.minimised.mol

>  <scratch_subdir>  (553) 
/opt/xchem-fragalysis-2/maxwin/BulkDock/SCRATCH/511014/C9249-P52

>  <fragmenstein_runtime>  (553) 
12.599579095840454

>  <fragmenstein_outcome>  (553) 
too moved

>  <fragmenstein_mode>  (553) 
expansion

>  <fragmenstein_error>  (553) 


$$$$
C9249-P30
     RDKit          3D

 43 45  0  0  0  0  0  0  0  0999 V2000
  -11.7875  -21.0055   22.7289 C   0  0  0  0  0  0  0  0  0  0  0  0
  -12.3041  -22.2875   23.0873 N   0  0  0  0  0  0  0  0  0  0  0  0
  -11.9960  -22.6050   21.4153 C   0  0  0  0  0  0  0  0  0  0  0  0
  -12.4557  -24.1358   20.4887 C   0  0  0  0  0  0  0  0  0  0  0  0
  -13.4399  -25.2123   19.3427 C   0  0  0  0  0  0  0  0  0  0  0  0
  -13.8807  -24.9809   17.8888 N   0  0  0  0  0  0  0  0  0  0  0  0
  -13.2825  -26.0254   16.9826 C   0  0  0  0  0  0  0  0  0  0  0  0
  -14.0335  -25.9065   15.6670 C   0  0  0  0  0  0  0  0  0  0  0  0
  -15.3593  -25.2909   16.0550 C   0  0  0  0  0  0  0  0  0  0  0  0
  -15.3068  -25.1697   17.5754 C   0  0  0  0  0  0  0  0  0  0  0  0
  -11.6486  -22.7581   24.2691 C   0  0  0  0  0  0  0  0  0  0  0  0
  -10.6575  -23.4250   24.3908 O   0  0  0  0  0  0  0  0  0  0  0  0
  -12.2702  -22.5333   25.6108 C   0  0  0  0  0  0  0  0  0  0  0  0
  -12.2645  -21.4167   26.3169 N   0  0  0  0  0  0  0  0  0  0  0  0
  -12.1404  -21.7388   27.6591 C   0  0  0  0  0  0  0  0  0  0  0  0
  -12.3239  -21.0605   28.8910 C   0  0  0  0  0  0  0  0  0  0  0  0
  -11.7538  -21.4187   30.0626 C   0  0  0  0  0  0  0  0  0  0  0  0
  -11.0621  -22.5481   29.9787 C   0  0  0  0  0  0  0  0  0  0  0  0
  -10.5466  -23.6943   32.1265 Br  0  0  0  0  0  0  0  0  0  0  0  0
  -10.7500  -23.2833   28.7349 C   0  0  0  0  0  0  0  0  0  0  0  0
  -11.5355  -22.9382   27.6861 C   0  0  0  0  0  0  0  0  0  0  0  0
  -11.9503  -23.5458   26.5410 N   0  0  0  0  0  0  0  0  0  0  0  0
  -10.6903  -21.0743   22.7941 H   0  0  0  0  0  0  0  0  0  0  0  0
  -11.9682  -20.4900   21.8061 H   0  0  0  0  0  0  0  0  0  0  0  0
  -12.0108  -20.4119   23.6109 H   0  0  0  0  0  0  0  0  0  0  0  0
  -12.4529  -21.8846   20.7804 H   0  0  0  0  0  0  0  0  0  0  0  0
  -10.9359  -22.4170   21.2154 H   0  0  0  0  0  0  0  0  0  0  0  0
  -11.4875  -24.5995   20.5031 H   0  0  0  0  0  0  0  0  0  0  0  0
  -12.6254  -23.4246   19.7163 H   0  0  0  0  0  0  0  0  0  0  0  0
  -14.1679  -25.8207   19.8712 H   0  0  0  0  0  0  0  0  0  0  0  0
  -12.6899  -25.9658   19.1125 H   0  0  0  0  0  0  0  0  0  0  0  0
  -12.2070  -25.9046   16.8243 H   0  0  0  0  0  0  0  0  0  0  0  0
  -13.4498  -27.0310   17.3947 H   0  0  0  0  0  0  0  0  0  0  0  0
  -13.5089  -25.2621   14.9544 H   0  0  0  0  0  0  0  0  0  0  0  0
  -14.1643  -26.8864   15.1963 H   0  0  0  0  0  0  0  0  0  0  0  0
  -15.4600  -24.3029   15.5908 H   0  0  0  0  0  0  0  0  0  0  0  0
  -16.2073  -25.9016   15.7294 H   0  0  0  0  0  0  0  0  0  0  0  0
  -15.6999  -26.0864   18.0335 H   0  0  0  0  0  0  0  0  0  0  0  0
  -15.9376  -24.3304   17.8594 H   0  0  0  0  0  0  0  0  0  0  0  0
  -12.8335  -20.1265   28.9793 H   0  0  0  0  0  0  0  0  0  0  0  0
  -11.9072  -20.9199   30.9842 H   0  0  0  0  0  0  0  0  0  0  0  0
  -10.1823  -24.2028   28.6957 H   0  0  0  0  0  0  0  0  0  0  0  0
  -11.5636  -24.4268   26.2526 H   0  0  0  0  0  0  0  0  0  0  0  0
  1  2  1  0
  2  3  1  0
  3  4  1  0
  4  5  1  0
  5  6  1  0
  6  7  1  0
  7  8  1  0
  8  9  1  0
  9 10  1  0
  2 11  1  0
 11 12  2  0
 11 13  1  0
 13 14  2  0
 14 15  1  0
 15 16  2  0
 16 17  1  0
 17 18  2  0
 18 19  1  0
 18 20  1  0
 20 21  2  0
 21 22  1  0
 10  6  1  0
 22 13  1  0
 21 15  1  0
  1 23  1  0
  1 24  1  0
  1 25  1  0
  3 26  1  0
  3 27  1  0
  4 28  1  0
  4 29  1  0
  5 30  1  0
  5 31  1  0
  7 32  1  0
  7 33  1  0
  8 34  1  0
  8 35  1  0
  9 36  1  0
  9 37  1  0
 10 38  1  0
 10 39  1  0
 16 40  1  0
 17 41  1  0
 20 42  1  0
 22 43  1  0
M  END
>  <Energy>  (554) 
352.94047778947896

>  <compound_id>  (554) 
9249

>  <target_id>  (554) 
1

>  <reference_id>  (554) 
30

>  <inspiration_ids>  (554) 
[52, 30]

>  <energy_score>  (554) 
292.07509067304807

>  <distance_score>  (554) 
4.842375656509501

>  <path>  (554) 
/opt/xchem-fragalysis-2/maxwin/BulkDock/SCRATCH/511014/C9249-P30/C9249-P30.minimised.mol

>  <scratch_subdir>  (554) 
/opt/xchem-fragalysis-2/maxwin/BulkDock/SCRATCH/511014/C9249-P30

>  <fragmenstein_runtime>  (554) 
9.897090673446655

>  <fragmenstein_outcome>  (554) 
too moved

>  <fragmenstein_mode>  (554) 
expansion

>  <fragmenstein_error>  (554) 


$$$$
C9250-P52
     RDKit          3D

 46 48  0  0  0  0  0  0  0  0999 V2000
  -12.9451  -27.4407   18.8439 C   0  0  0  0  0  0  0  0  0  0  0  0
  -11.4661  -28.1663   19.3088 C   0  0  0  0  0  0  0  0  0  0  0  0
  -11.6556  -29.7992   19.0288 C   0  0  0  0  0  0  0  0  0  0  0  0
  -10.4990  -27.8373   21.1795 C   0  0  0  0  0  0  0  0  0  0  0  0
  -10.2834  -27.3586   23.1451 N   0  0  0  0  0  0  0  0  0  0  0  0
  -11.5386  -26.8667   24.5050 C   0  0  0  0  0  0  0  0  0  0  0  0
  -12.7696  -26.8293   24.4708 O   0  0  0  0  0  0  0  0  0  0  0  0
  -10.9961  -26.2236   26.0267 C   0  0  0  0  0  0  0  0  0  0  0  0
  -11.6743  -26.7917   27.2000 C   0  0  0  0  0  0  0  0  0  0  0  0
  -11.6640  -26.3121   28.5194 C   0  0  0  0  0  0  0  0  0  0  0  0
  -12.5334  -27.2913   29.8843 Br  0  0  0  0  0  0  0  0  0  0  0  0
  -11.1677  -25.0618   28.7916 C   0  0  0  0  0  0  0  0  0  0  0  0
  -11.0525  -24.3115   27.6305 C   0  0  0  0  0  0  0  0  0  0  0  0
  -11.1599  -22.9485   27.4960 N   0  0  0  0  0  0  0  0  0  0  0  0
  -11.4855  -22.7327   26.1972 C   0  0  0  0  0  0  0  0  0  0  0  0
  -11.1810  -23.7679   25.4530 N   0  0  0  0  0  0  0  0  0  0  0  0
  -11.0221  -24.8252   26.3075 C   0  0  0  0  0  0  0  0  0  0  0  0
  -10.8142  -27.7641   17.7278 C   0  0  0  0  0  0  0  0  0  0  0  0
  -11.6648  -27.6092   16.5017 N   0  0  0  0  0  0  0  0  0  0  0  0
  -10.9312  -26.9494   15.4078 C   0  0  0  0  0  0  0  0  0  0  0  0
  -11.8750  -27.0996   14.2257 C   0  0  0  0  0  0  0  0  0  0  0  0
  -12.6952  -28.3444   14.5452 C   0  0  0  0  0  0  0  0  0  0  0  0
  -12.1676  -28.8369   15.8902 C   0  0  0  0  0  0  0  0  0  0  0  0
  -13.5819  -26.9932   19.5936 H   0  0  0  0  0  0  0  0  0  0  0  0
  -12.7700  -26.5527   18.2253 H   0  0  0  0  0  0  0  0  0  0  0  0
  -13.5607  -28.1446   18.2770 H   0  0  0  0  0  0  0  0  0  0  0  0
  -11.2945  -30.3942   19.8755 H   0  0  0  0  0  0  0  0  0  0  0  0
  -11.1153  -30.1510   18.1479 H   0  0  0  0  0  0  0  0  0  0  0  0
  -12.7126  -30.0506   18.8863 H   0  0  0  0  0  0  0  0  0  0  0  0
   -9.8080  -27.3216   20.5715 H   0  0  0  0  0  0  0  0  0  0  0  0
  -10.2161  -26.7410   21.3591 H   0  0  0  0  0  0  0  0  0  0  0  0
   -9.3214  -27.3771   23.5080 H   0  0  0  0  0  0  0  0  0  0  0  0
  -12.3176  -27.6610   27.0228 H   0  0  0  0  0  0  0  0  0  0  0  0
  -11.2084  -24.6121   29.7769 H   0  0  0  0  0  0  0  0  0  0  0  0
  -11.2607  -22.2794   28.2472 H   0  0  0  0  0  0  0  0  0  0  0  0
  -11.8837  -21.7929   25.8405 H   0  0  0  0  0  0  0  0  0  0  0  0
  -10.1140  -28.5145   17.3933 H   0  0  0  0  0  0  0  0  0  0  0  0
  -10.3511  -26.8087   17.8306 H   0  0  0  0  0  0  0  0  0  0  0  0
   -9.9811  -27.4584   15.2003 H   0  0  0  0  0  0  0  0  0  0  0  0
  -10.7205  -25.8988   15.6147 H   0  0  0  0  0  0  0  0  0  0  0  0
  -12.5364  -26.2296   14.1391 H   0  0  0  0  0  0  0  0  0  0  0  0
  -11.3271  -27.2031   13.2839 H   0  0  0  0  0  0  0  0  0  0  0  0
  -13.7570  -28.0805   14.6176 H   0  0  0  0  0  0  0  0  0  0  0  0
  -12.5907  -29.1101   13.7699 H   0  0  0  0  0  0  0  0  0  0  0  0
  -12.9627  -29.3170   16.4656 H   0  0  0  0  0  0  0  0  0  0  0  0
  -11.3652  -29.5676   15.7281 H   0  0  0  0  0  0  0  0  0  0  0  0
  1  2  1  0
  2  3  1  0
  2  4  1  0
  4  5  1  0
  5  6  1  0
  6  7  2  0
  6  8  1  0
  8  9  2  0
  9 10  1  0
 10 11  1  0
 10 12  2  0
 12 13  1  0
 13 14  1  0
 14 15  1  0
 15 16  2  0
 16 17  1  0
  2 18  1  0
 18 19  1  0
 19 20  1  0
 20 21  1  0
 21 22  1  0
 22 23  1  0
 17  8  1  0
 23 19  1  0
 17 13  2  0
  1 24  1  0
  1 25  1  0
  1 26  1  0
  3 27  1  0
  3 28  1  0
  3 29  1  0
  4 30  1  0
  4 31  1  0
  5 32  1  0
  9 33  1  0
 12 34  1  0
 14 35  1  0
 15 36  1  0
 18 37  1  0
 18 38  1  0
 20 39  1  0
 20 40  1  0
 21 41  1  0
 21 42  1  0
 22 43  1  0
 22 44  1  0
 23 45  1  0
 23 46  1  0
M  END
>  <Energy>  (555) 
544.94627593979681

>  <compound_id>  (555) 
9250

>  <target_id>  (555) 
1

>  <reference_id>  (555) 
52

>  <inspiration_ids>  (555) 
[52, 30]

>  <energy_score>  (555) 
460.33956372114767

>  <distance_score>  (555) 
4.959601819878116

>  <path>  (555) 
/opt/xchem-fragalysis-2/maxwin/BulkDock/SCRATCH/511014/C9250-P52/C9250-P52.minimised.mol

>  <scratch_subdir>  (555) 
/opt/xchem-fragalysis-2/maxwin/BulkDock/SCRATCH/511014/C9250-P52

>  <fragmenstein_runtime>  (555) 
9.430164813995361

>  <fragmenstein_outcome>  (555) 
too moved

>  <fragmenstein_mode>  (555) 
expansion

>  <fragmenstein_error>  (555) 


$$$$
C9250-P30
     RDKit          3D

 46 48  0  0  0  0  0  0  0  0999 V2000
  -11.1353  -30.3003   21.3532 C   0  0  0  0  0  0  0  0  0  0  0  0
  -10.6077  -28.2562   21.6603 C   0  0  0  0  0  0  0  0  0  0  0  0
   -9.4670  -29.7696   21.8218 C   0  0  0  0  0  0  0  0  0  0  0  0
  -10.7842  -27.3604   23.7737 C   0  0  0  0  0  0  0  0  0  0  0  0
  -10.4582  -25.9900   25.2551 N   0  0  0  0  0  0  0  0  0  0  0  0
  -10.4837  -26.1388   27.0820 C   0  0  0  0  0  0  0  0  0  0  0  0
  -10.8187  -27.1644   27.6468 O   0  0  0  0  0  0  0  0  0  0  0  0
   -9.8277  -24.7893   28.4415 C   0  0  0  0  0  0  0  0  0  0  0  0
   -8.7269  -24.8447   30.0003 C   0  0  0  0  0  0  0  0  0  0  0  0
   -9.1777  -24.4866   31.7271 C   0  0  0  0  0  0  0  0  0  0  0  0
   -7.6163  -23.7849   33.5344 Br  0  0  0  0  0  0  0  0  0  0  0  0
  -10.4468  -23.7644   31.5349 C   0  0  0  0  0  0  0  0  0  0  0  0
  -10.7951  -22.9170   29.8344 C   0  0  0  0  0  0  0  0  0  0  0  0
  -11.6895  -21.9187   29.4950 N   0  0  0  0  0  0  0  0  0  0  0  0
  -11.8861  -21.9842   28.1493 C   0  0  0  0  0  0  0  0  0  0  0  0
  -11.2796  -22.9522   27.5250 N   0  0  0  0  0  0  0  0  0  0  0  0
  -10.5598  -23.5621   28.4900 C   0  0  0  0  0  0  0  0  0  0  0  0
  -11.7881  -28.0904   19.8128 C   0  0  0  0  0  0  0  0  0  0  0  0
  -13.2374  -28.1082   19.1867 N   0  0  0  0  0  0  0  0  0  0  0  0
  -13.6988  -26.7742   18.7226 C   0  0  0  0  0  0  0  0  0  0  0  0
  -14.8796  -27.0859   17.8200 C   0  0  0  0  0  0  0  0  0  0  0  0
  -14.5276  -28.4215   17.1909 C   0  0  0  0  0  0  0  0  0  0  0  0
  -13.2602  -28.8721   17.9071 C   0  0  0  0  0  0  0  0  0  0  0  0
  -11.0420  -31.1303   22.0915 H   0  0  0  0  0  0  0  0  0  0  0  0
  -10.8827  -30.5892   20.3196 H   0  0  0  0  0  0  0  0  0  0  0  0
  -12.2309  -30.5169   21.1913 H   0  0  0  0  0  0  0  0  0  0  0  0
   -9.6869  -30.4452   22.7119 H   0  0  0  0  0  0  0  0  0  0  0  0
   -9.2319  -30.5405   21.0208 H   0  0  0  0  0  0  0  0  0  0  0  0
   -8.5525  -29.1702   21.9838 H   0  0  0  0  0  0  0  0  0  0  0  0
   -9.8934  -27.7389   24.4599 H   0  0  0  0  0  0  0  0  0  0  0  0
  -11.5776  -27.7797   24.4817 H   0  0  0  0  0  0  0  0  0  0  0  0
  -10.2263  -25.0169   25.0058 H   0  0  0  0  0  0  0  0  0  0  0  0
   -8.1528  -25.8172   30.2094 H   0  0  0  0  0  0  0  0  0  0  0  0
  -10.8308  -23.1421   32.3297 H   0  0  0  0  0  0  0  0  0  0  0  0
  -12.3075  -21.4735   30.1598 H   0  0  0  0  0  0  0  0  0  0  0  0
  -12.5428  -21.3127   27.6601 H   0  0  0  0  0  0  0  0  0  0  0  0
  -11.5950  -29.0960   19.3636 H   0  0  0  0  0  0  0  0  0  0  0  0
  -11.4720  -27.2305   19.1245 H   0  0  0  0  0  0  0  0  0  0  0  0
  -12.9403  -26.2643   18.1201 H   0  0  0  0  0  0  0  0  0  0  0  0
  -13.9975  -26.1242   19.5441 H   0  0  0  0  0  0  0  0  0  0  0  0
  -15.7983  -27.1830   18.4108 H   0  0  0  0  0  0  0  0  0  0  0  0
  -15.0415  -26.3052   17.0705 H   0  0  0  0  0  0  0  0  0  0  0  0
  -15.3439  -29.1362   17.3443 H   0  0  0  0  0  0  0  0  0  0  0  0
  -14.3586  -28.3279   16.1132 H   0  0  0  0  0  0  0  0  0  0  0  0
  -13.2677  -29.9523   18.0860 H   0  0  0  0  0  0  0  0  0  0  0  0
  -12.3914  -28.6247   17.2832 H   0  0  0  0  0  0  0  0  0  0  0  0
  1  2  1  0
  2  3  1  0
  2  4  1  0
  4  5  1  0
  5  6  1  0
  6  7  2  0
  6  8  1  0
  8  9  2  0
  9 10  1  0
 10 11  1  0
 10 12  2  0
 12 13  1  0
 13 14  1  0
 14 15  1  0
 15 16  2  0
 16 17  1  0
  2 18  1  0
 18 19  1  0
 19 20  1  0
 20 21  1  0
 21 22  1  0
 22 23  1  0
 17  8  1  0
 23 19  1  0
 17 13  2  0
  1 24  1  0
  1 25  1  0
  1 26  1  0
  3 27  1  0
  3 28  1  0
  3 29  1  0
  4 30  1  0
  4 31  1  0
  5 32  1  0
  9 33  1  0
 12 34  1  0
 14 35  1  0
 15 36  1  0
 18 37  1  0
 18 38  1  0
 20 39  1  0
 20 40  1  0
 21 41  1  0
 21 42  1  0
 22 43  1  0
 22 44  1  0
 23 45  1  0
 23 46  1  0
M  END
>  <Energy>  (556) 
1256.3053768737138

>  <compound_id>  (556) 
9250

>  <target_id>  (556) 
1

>  <reference_id>  (556) 
30

>  <inspiration_ids>  (556) 
[52, 30]

>  <energy_score>  (556) 
1171.6986646550683

>  <distance_score>  (556) 
4.952096443057047

>  <path>  (556) 
/opt/xchem-fragalysis-2/maxwin/BulkDock/SCRATCH/511014/C9250-P30/C9250-P30.minimised.mol

>  <scratch_subdir>  (556) 
/opt/xchem-fragalysis-2/maxwin/BulkDock/SCRATCH/511014/C9250-P30

>  <fragmenstein_runtime>  (556) 
11.353311538696289

>  <fragmenstein_outcome>  (556) 
too moved

>  <fragmenstein_mode>  (556) 
expansion

>  <fragmenstein_error>  (556) 


$$$$
C9252-P52
     RDKit          3D

 46 48  0  0  0  0  0  0  0  0999 V2000
  -13.3265  -26.7581   24.6860 C   0  0  0  0  0  0  0  0  0  0  0  0
  -11.5521  -27.3563   23.7863 C   0  0  0  0  0  0  0  0  0  0  0  0
   -9.9531  -27.0488   22.3398 C   0  0  0  0  0  0  0  0  0  0  0  0
  -10.7457  -26.7601   23.0764 N   0  0  0  0  0  0  0  0  0  0  0  0
  -10.9885  -28.2580   21.5258 C   0  0  0  0  0  0  0  0  0  0  0  0
  -11.4317  -28.1864   19.4411 C   0  0  0  0  0  0  0  0  0  0  0  0
  -12.7775  -28.1466   18.6662 N   0  0  0  0  0  0  0  0  0  0  0  0
  -13.0024  -26.8494   17.9962 C   0  0  0  0  0  0  0  0  0  0  0  0
  -14.1092  -27.1367   16.9966 C   0  0  0  0  0  0  0  0  0  0  0  0
  -13.8876  -28.5873   16.6045 C   0  0  0  0  0  0  0  0  0  0  0  0
  -12.7616  -29.0738   17.5112 C   0  0  0  0  0  0  0  0  0  0  0  0
  -10.7025  -26.6323   25.1307 C   0  0  0  0  0  0  0  0  0  0  0  0
   -9.5864  -26.8006   25.6258 O   0  0  0  0  0  0  0  0  0  0  0  0
  -11.7928  -26.1903   26.3603 C   0  0  0  0  0  0  0  0  0  0  0  0
  -12.1715  -27.0506   27.4542 C   0  0  0  0  0  0  0  0  0  0  0  0
  -12.4009  -26.6167   28.7692 C   0  0  0  0  0  0  0  0  0  0  0  0
  -12.9314  -27.8663   30.0886 Br  0  0  0  0  0  0  0  0  0  0  0  0
  -12.2314  -25.2935   29.1311 C   0  0  0  0  0  0  0  0  0  0  0  0
  -11.9370  -24.4262   28.0905 C   0  0  0  0  0  0  0  0  0  0  0  0
  -11.7653  -23.0666   28.1114 N   0  0  0  0  0  0  0  0  0  0  0  0
  -11.5944  -22.6691   26.8259 C   0  0  0  0  0  0  0  0  0  0  0  0
  -11.4681  -23.6901   26.0081 N   0  0  0  0  0  0  0  0  0  0  0  0
  -11.7178  -24.8143   26.7594 C   0  0  0  0  0  0  0  0  0  0  0  0
  -13.5781  -27.3849   25.5519 H   0  0  0  0  0  0  0  0  0  0  0  0
  -14.1937  -26.7622   23.9784 H   0  0  0  0  0  0  0  0  0  0  0  0
  -13.3891  -25.6847   24.9577 H   0  0  0  0  0  0  0  0  0  0  0  0
  -11.8149  -25.9898   24.2418 H   0  0  0  0  0  0  0  0  0  0  0  0
  -12.0640  -28.0568   24.4514 H   0  0  0  0  0  0  0  0  0  0  0  0
   -9.9865  -26.3808   21.4654 H   0  0  0  0  0  0  0  0  0  0  0  0
   -9.1587  -27.5752   23.0602 H   0  0  0  0  0  0  0  0  0  0  0  0
  -10.0089  -28.2794   21.0696 H   0  0  0  0  0  0  0  0  0  0  0  0
  -11.0039  -29.6359   21.3053 H   0  0  0  0  0  0  0  0  0  0  0  0
  -10.8029  -27.4858   18.8500 H   0  0  0  0  0  0  0  0  0  0  0  0
  -11.1673  -29.2421   19.1753 H   0  0  0  0  0  0  0  0  0  0  0  0
  -12.1130  -26.5282   17.4414 H   0  0  0  0  0  0  0  0  0  0  0  0
  -13.3044  -26.0682   18.6939 H   0  0  0  0  0  0  0  0  0  0  0  0
  -15.0930  -27.0241   17.4674 H   0  0  0  0  0  0  0  0  0  0  0  0
  -14.0678  -26.4640   16.1344 H   0  0  0  0  0  0  0  0  0  0  0  0
  -14.8040  -29.1649   16.7699 H   0  0  0  0  0  0  0  0  0  0  0  0
  -13.6136  -28.6836   15.5489 H   0  0  0  0  0  0  0  0  0  0  0  0
  -12.9229  -30.1096   17.8268 H   0  0  0  0  0  0  0  0  0  0  0  0
  -11.8086  -29.0189   16.9681 H   0  0  0  0  0  0  0  0  0  0  0  0
  -12.3144  -28.1119   27.2717 H   0  0  0  0  0  0  0  0  0  0  0  0
  -12.3329  -24.9379   30.1466 H   0  0  0  0  0  0  0  0  0  0  0  0
  -11.8257  -22.4618   28.9197 H   0  0  0  0  0  0  0  0  0  0  0  0
  -11.5566  -21.6241   26.5530 H   0  0  0  0  0  0  0  0  0  0  0  0
  1  2  1  0
  2  3  1  0
  3  4  1  0
  4  5  1  0
  5  6  1  0
  6  7  1  0
  7  8  1  0
  8  9  1  0
  9 10  1  0
 10 11  1  0
  4 12  1  0
 12 13  2  0
 12 14  1  0
 14 15  2  0
 15 16  1  0
 16 17  1  0
 16 18  2  0
 18 19  1  0
 19 20  1  0
 20 21  1  0
 21 22  2  0
 22 23  1  0
 11  7  1  0
 23 14  1  0
 23 19  2  0
  1 24  1  0
  1 25  1  0
  1 26  1  0
  2 27  1  0
  2 28  1  0
  3 29  1  0
  3 30  1  0
  5 31  1  0
  5 32  1  0
  6 33  1  0
  6 34  1  0
  8 35  1  0
  8 36  1  0
  9 37  1  0
  9 38  1  0
 10 39  1  0
 10 40  1  0
 11 41  1  0
 11 42  1  0
 15 43  1  0
 18 44  1  0
 20 45  1  0
 21 46  1  0
M  END
>  <Energy>  (557) 
1659.7071270758524

>  <compound_id>  (557) 
9252

>  <target_id>  (557) 
1

>  <reference_id>  (557) 
52

>  <inspiration_ids>  (557) 
[52, 30]

>  <energy_score>  (557) 
1588.2730450304457

>  <distance_score>  (557) 
5.700459842367759

>  <path>  (557) 
/opt/xchem-fragalysis-2/maxwin/BulkDock/SCRATCH/511014/C9252-P52/C9252-P52.minimised.mol

>  <scratch_subdir>  (557) 
/opt/xchem-fragalysis-2/maxwin/BulkDock/SCRATCH/511014/C9252-P52

>  <fragmenstein_runtime>  (557) 
10.564372062683105

>  <fragmenstein_outcome>  (557) 
too moved

>  <fragmenstein_mode>  (557) 
expansion

>  <fragmenstein_error>  (557) 


$$$$
C9252-P30
     RDKit          3D

 46 48  0  0  0  0  0  0  0  0999 V2000
  -15.0030  -26.4491   25.5636 C   0  0  0  0  0  0  0  0  0  0  0  0
  -13.9624  -27.3860   26.1824 C   0  0  0  0  0  0  0  0  0  0  0  0
  -12.7040  -27.6378   25.2185 C   0  0  0  0  0  0  0  0  0  0  0  0
  -11.9009  -26.4505   25.4774 N   0  0  0  0  0  0  0  0  0  0  0  0
  -10.8375  -27.1362   23.8793 C   0  0  0  0  0  0  0  0  0  0  0  0
  -10.4837  -26.7740   21.6928 C   0  0  0  0  0  0  0  0  0  0  0  0
  -10.8893  -26.7731   19.5966 N   0  0  0  0  0  0  0  0  0  0  0  0
  -12.0073  -28.1158   18.9637 C   0  0  0  0  0  0  0  0  0  0  0  0
  -12.1845  -27.7924   17.4824 C   0  0  0  0  0  0  0  0  0  0  0  0
  -12.5232  -26.3317   17.4909 C   0  0  0  0  0  0  0  0  0  0  0  0
  -12.4310  -25.9888   18.9813 C   0  0  0  0  0  0  0  0  0  0  0  0
  -10.9865  -26.1575   26.6317 C   0  0  0  0  0  0  0  0  0  0  0  0
  -10.6330  -26.8609   27.5327 O   0  0  0  0  0  0  0  0  0  0  0  0
  -10.4685  -24.7082   26.8654 C   0  0  0  0  0  0  0  0  0  0  0  0
   -9.9820  -24.3033   28.2648 C   0  0  0  0  0  0  0  0  0  0  0  0
  -10.5775  -23.3795   29.3779 C   0  0  0  0  0  0  0  0  0  0  0  0
  -10.3825  -23.8888   31.8952 Br  0  0  0  0  0  0  0  0  0  0  0  0
  -11.4124  -22.3964   28.9081 C   0  0  0  0  0  0  0  0  0  0  0  0
  -11.7440  -22.6680   27.5531 C   0  0  0  0  0  0  0  0  0  0  0  0
  -12.3335  -21.9004   26.6157 N   0  0  0  0  0  0  0  0  0  0  0  0
  -12.8460  -22.6611   25.6177 C   0  0  0  0  0  0  0  0  0  0  0  0
  -12.5378  -23.8892   25.8383 N   0  0  0  0  0  0  0  0  0  0  0  0
  -11.5173  -23.7970   26.7344 C   0  0  0  0  0  0  0  0  0  0  0  0
  -15.3980  -26.8399   24.6229 H   0  0  0  0  0  0  0  0  0  0  0  0
  -15.8551  -26.3412   26.2408 H   0  0  0  0  0  0  0  0  0  0  0  0
  -14.5822  -25.4639   25.3550 H   0  0  0  0  0  0  0  0  0  0  0  0
  -14.4680  -28.3433   26.3518 H   0  0  0  0  0  0  0  0  0  0  0  0
  -13.6522  -26.9918   27.1527 H   0  0  0  0  0  0  0  0  0  0  0  0
  -12.2373  -28.4459   25.7623 H   0  0  0  0  0  0  0  0  0  0  0  0
  -13.4192  -27.7784   24.4146 H   0  0  0  0  0  0  0  0  0  0  0  0
  -10.0084  -27.5755   24.5484 H   0  0  0  0  0  0  0  0  0  0  0  0
  -11.5148  -27.8261   23.9586 H   0  0  0  0  0  0  0  0  0  0  0  0
  -10.4535  -27.8724   21.3817 H   0  0  0  0  0  0  0  0  0  0  0  0
  -10.0104  -25.8618   21.3827 H   0  0  0  0  0  0  0  0  0  0  0  0
  -12.9724  -28.1228   19.4626 H   0  0  0  0  0  0  0  0  0  0  0  0
  -11.6614  -29.1476   19.1098 H   0  0  0  0  0  0  0  0  0  0  0  0
  -11.2645  -27.9647   16.9166 H   0  0  0  0  0  0  0  0  0  0  0  0
  -12.9805  -28.3959   17.0357 H   0  0  0  0  0  0  0  0  0  0  0  0
  -11.8167  -25.8090   16.8426 H   0  0  0  0  0  0  0  0  0  0  0  0
  -13.5334  -26.1476   17.1109 H   0  0  0  0  0  0  0  0  0  0  0  0
  -12.5844  -25.0229   19.4973 H   0  0  0  0  0  0  0  0  0  0  0  0
  -13.3709  -26.4200   19.3989 H   0  0  0  0  0  0  0  0  0  0  0  0
   -9.0649  -23.7355   27.9658 H   0  0  0  0  0  0  0  0  0  0  0  0
  -11.8560  -21.6056   29.4898 H   0  0  0  0  0  0  0  0  0  0  0  0
  -12.5409  -20.9356   26.7242 H   0  0  0  0  0  0  0  0  0  0  0  0
  -13.4511  -22.2917   24.8001 H   0  0  0  0  0  0  0  0  0  0  0  0
  1  2  1  0
  2  3  1  0
  3  4  1  0
  4  5  1  0
  5  6  1  0
  6  7  1  0
  7  8  1  0
  8  9  1  0
  9 10  1  0
 10 11  1  0
  4 12  1  0
 12 13  2  0
 12 14  1  0
 14 15  2  0
 15 16  1  0
 16 17  1  0
 16 18  2  0
 18 19  1  0
 19 20  1  0
 20 21  1  0
 21 22  2  0
 22 23  1  0
 11  7  1  0
 23 14  1  0
 23 19  2  0
  1 24  1  0
  1 25  1  0
  1 26  1  0
  2 27  1  0
  2 28  1  0
  3 29  1  0
  3 30  1  0
  5 31  1  0
  5 32  1  0
  6 33  1  0
  6 34  1  0
  8 35  1  0
  8 36  1  0
  9 37  1  0
  9 38  1  0
 10 39  1  0
 10 40  1  0
 11 41  1  0
 11 42  1  0
 15 43  1  0
 18 44  1  0
 20 45  1  0
 21 46  1  0
M  END
>  <Energy>  (558) 
908.52953258484854

>  <compound_id>  (558) 
9252

>  <target_id>  (558) 
1

>  <reference_id>  (558) 
30

>  <inspiration_ids>  (558) 
[52, 30]

>  <energy_score>  (558) 
837.0954505394349

>  <distance_score>  (558) 
6.205105707192097

>  <path>  (558) 
/opt/xchem-fragalysis-2/maxwin/BulkDock/SCRATCH/511014/C9252-P30/C9252-P30.minimised.mol

>  <scratch_subdir>  (558) 
/opt/xchem-fragalysis-2/maxwin/BulkDock/SCRATCH/511014/C9252-P30

>  <fragmenstein_runtime>  (558) 
11.133520126342773

>  <fragmenstein_outcome>  (558) 
too moved

>  <fragmenstein_mode>  (558) 
expansion

>  <fragmenstein_error>  (558) 


$$$$
C9253-P52
     RDKit          3D

 40 42  0  0  0  0  0  0  0  0999 V2000
  -13.5412  -25.2348   20.3960 C   0  0  0  0  0  0  0  0  0  0  0  0
  -12.3965  -24.7625   20.0202 N   0  0  0  0  0  0  0  0  0  0  0  0
  -12.8411  -25.7808   18.4732 C   0  0  0  0  0  0  0  0  0  0  0  0
  -11.8823  -26.7917   17.7300 C   0  0  0  0  0  0  0  0  0  0  0  0
  -12.0821  -26.6720   16.2784 N   0  0  0  0  0  0  0  0  0  0  0  0
  -13.3218  -27.2394   15.7608 C   0  0  0  0  0  0  0  0  0  0  0  0
  -13.1098  -27.1838   14.2534 C   0  0  0  0  0  0  0  0  0  0  0  0
  -11.5953  -27.1456   14.0634 C   0  0  0  0  0  0  0  0  0  0  0  0
  -11.0160  -27.2510   15.4675 C   0  0  0  0  0  0  0  0  0  0  0  0
  -12.3220  -23.1043   20.2850 C   0  0  0  0  0  0  0  0  0  0  0  0
  -12.6572  -22.3415   19.4473 O   0  0  0  0  0  0  0  0  0  0  0  0
  -11.9087  -22.3639   21.8384 C   0  0  0  0  0  0  0  0  0  0  0  0
  -12.9423  -22.3347   22.7153 N   0  0  0  0  0  0  0  0  0  0  0  0
  -12.6082  -22.4045   24.0193 C   0  0  0  0  0  0  0  0  0  0  0  0
  -13.4147  -22.9002   25.0630 C   0  0  0  0  0  0  0  0  0  0  0  0
  -12.8239  -23.5575   26.1482 C   0  0  0  0  0  0  0  0  0  0  0  0
  -11.4592  -23.6948   26.2145 C   0  0  0  0  0  0  0  0  0  0  0  0
  -10.7699  -24.6012   27.7216 Br  0  0  0  0  0  0  0  0  0  0  0  0
  -10.6693  -23.2528   25.1422 C   0  0  0  0  0  0  0  0  0  0  0  0
  -11.2464  -22.4981   24.0558 C   0  0  0  0  0  0  0  0  0  0  0  0
  -10.8295  -22.0641   22.7246 N   0  0  0  0  0  0  0  0  0  0  0  0
  -13.7268  -24.9454   21.3907 H   0  0  0  0  0  0  0  0  0  0  0  0
  -13.8377  -24.5952   19.5712 H   0  0  0  0  0  0  0  0  0  0  0  0
  -13.7626  -26.2760   20.2881 H   0  0  0  0  0  0  0  0  0  0  0  0
  -13.7494  -26.4016   18.5900 H   0  0  0  0  0  0  0  0  0  0  0  0
  -13.2374  -25.0121   17.7798 H   0  0  0  0  0  0  0  0  0  0  0  0
  -12.0917  -27.8141   18.0703 H   0  0  0  0  0  0  0  0  0  0  0  0
  -10.8403  -26.6211   17.9495 H   0  0  0  0  0  0  0  0  0  0  0  0
  -14.2056  -26.6658   16.0563 H   0  0  0  0  0  0  0  0  0  0  0  0
  -13.4538  -28.2791   16.0851 H   0  0  0  0  0  0  0  0  0  0  0  0
  -13.5572  -28.0506   13.7564 H   0  0  0  0  0  0  0  0  0  0  0  0
  -13.5605  -26.2801   13.8268 H   0  0  0  0  0  0  0  0  0  0  0  0
  -11.3057  -26.1967   13.5959 H   0  0  0  0  0  0  0  0  0  0  0  0
  -11.2444  -27.9583   13.4198 H   0  0  0  0  0  0  0  0  0  0  0  0
  -10.0756  -26.6979   15.5541 H   0  0  0  0  0  0  0  0  0  0  0  0
  -10.8357  -28.3004   15.7314 H   0  0  0  0  0  0  0  0  0  0  0  0
  -14.4921  -22.8850   24.9474 H   0  0  0  0  0  0  0  0  0  0  0  0
  -13.4497  -24.0321   26.8980 H   0  0  0  0  0  0  0  0  0  0  0  0
   -9.6425  -23.5714   25.0724 H   0  0  0  0  0  0  0  0  0  0  0  0
   -9.8793  -22.1912   22.4091 H   0  0  0  0  0  0  0  0  0  0  0  0
  1  2  1  0
  2  3  1  0
  3  4  1  0
  4  5  1  0
  5  6  1  0
  6  7  1  0
  7  8  1  0
  8  9  1  0
  2 10  1  0
 10 11  2  0
 10 12  1  0
 12 13  2  0
 13 14  1  0
 14 15  2  0
 15 16  1  0
 16 17  2  0
 17 18  1  0
 17 19  1  0
 19 20  2  0
 20 21  1  0
  9  5  1  0
 21 12  1  0
 20 14  1  0
  1 22  1  0
  1 23  1  0
  1 24  1  0
  3 25  1  0
  3 26  1  0
  4 27  1  0
  4 28  1  0
  6 29  1  0
  6 30  1  0
  7 31  1  0
  7 32  1  0
  8 33  1  0
  8 34  1  0
  9 35  1  0
  9 36  1  0
 15 37  1  0
 16 38  1  0
 19 39  1  0
 21 40  1  0
M  END
>  <Energy>  (559) 
317.72664824919082

>  <compound_id>  (559) 
9253

>  <target_id>  (559) 
1

>  <reference_id>  (559) 
52

>  <inspiration_ids>  (559) 
[52, 30]

>  <energy_score>  (559) 
257.64495213037276

>  <distance_score>  (559) 
6.465112319029277

>  <path>  (559) 
/opt/xchem-fragalysis-2/maxwin/BulkDock/SCRATCH/511014/C9253-P52/C9253-P52.minimised.mol

>  <scratch_subdir>  (559) 
/opt/xchem-fragalysis-2/maxwin/BulkDock/SCRATCH/511014/C9253-P52

>  <fragmenstein_runtime>  (559) 
9.691996097564697

>  <fragmenstein_outcome>  (559) 
too moved

>  <fragmenstein_mode>  (559) 
expansion

>  <fragmenstein_error>  (559) 


$$$$
C9253-P30
     RDKit          3D

 40 42  0  0  0  0  0  0  0  0999 V2000
  -13.9263  -23.0881   24.1286 C   0  0  0  0  0  0  0  0  0  0  0  0
  -12.5103  -22.9380   24.2807 N   0  0  0  0  0  0  0  0  0  0  0  0
  -12.6182  -22.6143   22.4295 C   0  0  0  0  0  0  0  0  0  0  0  0
  -12.5406  -23.6697   20.6973 C   0  0  0  0  0  0  0  0  0  0  0  0
  -13.4458  -24.8664   19.5283 N   0  0  0  0  0  0  0  0  0  0  0  0
  -14.1651  -24.4486   18.1940 C   0  0  0  0  0  0  0  0  0  0  0  0
  -14.4630  -25.6250   17.2763 C   0  0  0  0  0  0  0  0  0  0  0  0
  -13.2229  -26.4016   17.4093 C   0  0  0  0  0  0  0  0  0  0  0  0
  -12.8826  -26.1615   18.8837 C   0  0  0  0  0  0  0  0  0  0  0  0
  -12.2076  -22.0027   25.4547 C   0  0  0  0  0  0  0  0  0  0  0  0
  -12.0713  -20.8236   25.3799 O   0  0  0  0  0  0  0  0  0  0  0  0
  -11.9942  -22.5326   27.1558 C   0  0  0  0  0  0  0  0  0  0  0  0
  -12.4959  -21.6264   27.9646 N   0  0  0  0  0  0  0  0  0  0  0  0
  -11.9657  -21.6670   29.2099 C   0  0  0  0  0  0  0  0  0  0  0  0
  -12.0757  -20.8309   30.1927 C   0  0  0  0  0  0  0  0  0  0  0  0
  -10.9191  -20.7733   31.2600 C   0  0  0  0  0  0  0  0  0  0  0  0
  -10.1103  -21.6766   32.3260 C   0  0  0  0  0  0  0  0  0  0  0  0
   -8.2103  -21.0551   33.9242 Br  0  0  0  0  0  0  0  0  0  0  0  0
  -11.0571  -22.8741   31.6330 C   0  0  0  0  0  0  0  0  0  0  0  0
  -11.2044  -22.6054   29.7545 C   0  0  0  0  0  0  0  0  0  0  0  0
  -11.0634  -23.2207   28.2269 N   0  0  0  0  0  0  0  0  0  0  0  0
  -14.3379  -23.1019   25.1484 H   0  0  0  0  0  0  0  0  0  0  0  0
  -14.4785  -22.2615   23.7029 H   0  0  0  0  0  0  0  0  0  0  0  0
  -14.0967  -24.1180   23.8620 H   0  0  0  0  0  0  0  0  0  0  0  0
  -11.5616  -22.2898   22.3618 H   0  0  0  0  0  0  0  0  0  0  0  0
  -12.9999  -21.6279   22.3747 H   0  0  0  0  0  0  0  0  0  0  0  0
  -11.6219  -24.2304   20.7735 H   0  0  0  0  0  0  0  0  0  0  0  0
  -12.4873  -22.7567   20.1019 H   0  0  0  0  0  0  0  0  0  0  0  0
  -13.5992  -23.7168   17.6505 H   0  0  0  0  0  0  0  0  0  0  0  0
  -15.1731  -24.0853   18.2800 H   0  0  0  0  0  0  0  0  0  0  0  0
  -15.3247  -26.1959   17.6433 H   0  0  0  0  0  0  0  0  0  0  0  0
  -14.6653  -25.3151   16.2468 H   0  0  0  0  0  0  0  0  0  0  0  0
  -12.4403  -26.0086   16.7501 H   0  0  0  0  0  0  0  0  0  0  0  0
  -13.3558  -27.4629   17.1779 H   0  0  0  0  0  0  0  0  0  0  0  0
  -11.8019  -26.2569   18.8432 H   0  0  0  0  0  0  0  0  0  0  0  0
  -13.3792  -27.0006   19.3869 H   0  0  0  0  0  0  0  0  0  0  0  0
  -12.7899  -20.1113   29.8274 H   0  0  0  0  0  0  0  0  0  0  0  0
  -10.7926  -19.8228   31.7665 H   0  0  0  0  0  0  0  0  0  0  0  0
  -10.6442  -23.8520   31.9567 H   0  0  0  0  0  0  0  0  0  0  0  0
  -10.6334  -24.1152   28.0679 H   0  0  0  0  0  0  0  0  0  0  0  0
  1  2  1  0
  2  3  1  0
  3  4  1  0
  4  5  1  0
  5  6  1  0
  6  7  1  0
  7  8  1  0
  8  9  1  0
  2 10  1  0
 10 11  2  0
 10 12  1  0
 12 13  2  0
 13 14  1  0
 14 15  2  0
 15 16  1  0
 16 17  2  0
 17 18  1  0
 17 19  1  0
 19 20  2  0
 20 21  1  0
  9  5  1  0
 21 12  1  0
 20 14  1  0
  1 22  1  0
  1 23  1  0
  1 24  1  0
  3 25  1  0
  3 26  1  0
  4 27  1  0
  4 28  1  0
  6 29  1  0
  6 30  1  0
  7 31  1  0
  7 32  1  0
  8 33  1  0
  8 34  1  0
  9 35  1  0
  9 36  1  0
 15 37  1  0
 16 38  1  0
 19 39  1  0
 21 40  1  0
M  END
>  <Energy>  (560) 
846.18431489280022

>  <compound_id>  (560) 
9253

>  <target_id>  (560) 
1

>  <reference_id>  (560) 
30

>  <inspiration_ids>  (560) 
[52, 30]

>  <energy_score>  (560) 
786.102618773976

>  <distance_score>  (560) 
5.0271732368008655

>  <path>  (560) 
/opt/xchem-fragalysis-2/maxwin/BulkDock/SCRATCH/511014/C9253-P30/C9253-P30.minimised.mol

>  <scratch_subdir>  (560) 
/opt/xchem-fragalysis-2/maxwin/BulkDock/SCRATCH/511014/C9253-P30

>  <fragmenstein_runtime>  (560) 
10.224497318267822

>  <fragmenstein_outcome>  (560) 
too moved

>  <fragmenstein_mode>  (560) 
expansion

>  <fragmenstein_error>  (560) 


$$$$
C9254-P52
     RDKit          3D

 45 47  0  0  0  0  0  0  0  0999 V2000
  -13.2300  -25.8438   25.0051 C   0  0  0  0  0  0  0  0  0  0  0  0
  -11.6056  -26.4124   24.7203 C   0  0  0  0  0  0  0  0  0  0  0  0
  -10.6534  -27.2309   23.2323 N   0  0  0  0  0  0  0  0  0  0  0  0
  -10.4180  -27.6673   21.2664 C   0  0  0  0  0  0  0  0  0  0  0  0
  -11.3294  -28.0584   19.3855 C   0  0  0  0  0  0  0  0  0  0  0  0
  -11.3804  -29.4930   19.0265 O   0  0  0  0  0  0  0  0  0  0  0  0
  -12.5995  -27.4285   18.5161 C   0  0  0  0  0  0  0  0  0  0  0  0
  -12.5949  -27.8238   17.0692 N   0  0  0  0  0  0  0  0  0  0  0  0
  -11.4577  -27.2788   16.3064 C   0  0  0  0  0  0  0  0  0  0  0  0
  -11.9358  -27.1957   14.8590 C   0  0  0  0  0  0  0  0  0  0  0  0
  -13.4344  -27.4406   14.9159 C   0  0  0  0  0  0  0  0  0  0  0  0
  -13.7820  -27.2872   16.3842 C   0  0  0  0  0  0  0  0  0  0  0  0
  -10.9363  -25.5580   25.8712 C   0  0  0  0  0  0  0  0  0  0  0  0
  -10.9848  -24.2302   25.9565 N   0  0  0  0  0  0  0  0  0  0  0  0
  -10.9917  -23.9029   27.3052 C   0  0  0  0  0  0  0  0  0  0  0  0
  -11.1592  -22.6695   27.9562 C   0  0  0  0  0  0  0  0  0  0  0  0
  -11.1732  -22.6329   29.3593 C   0  0  0  0  0  0  0  0  0  0  0  0
  -11.0080  -23.7983   30.1076 C   0  0  0  0  0  0  0  0  0  0  0  0
  -10.8447  -25.0357   29.4780 C   0  0  0  0  0  0  0  0  0  0  0  0
  -10.8499  -25.0425   28.0779 C   0  0  0  0  0  0  0  0  0  0  0  0
  -10.7684  -26.0539   27.1547 N   0  0  0  0  0  0  0  0  0  0  0  0
  -13.3477  -24.7623   24.9001 H   0  0  0  0  0  0  0  0  0  0  0  0
  -14.0163  -26.3424   24.4286 H   0  0  0  0  0  0  0  0  0  0  0  0
  -13.4733  -26.0677   26.0552 H   0  0  0  0  0  0  0  0  0  0  0  0
  -12.0426  -27.3263   25.1001 H   0  0  0  0  0  0  0  0  0  0  0  0
  -11.5898  -27.5150   23.0741 H   0  0  0  0  0  0  0  0  0  0  0  0
  -10.1877  -26.5868   21.4606 H   0  0  0  0  0  0  0  0  0  0  0  0
   -9.7750  -27.1510   20.6179 H   0  0  0  0  0  0  0  0  0  0  0  0
  -10.6308  -27.5591   18.6718 H   0  0  0  0  0  0  0  0  0  0  0  0
  -11.5983  -29.5007   18.0703 H   0  0  0  0  0  0  0  0  0  0  0  0
  -12.6871  -26.3440   18.5858 H   0  0  0  0  0  0  0  0  0  0  0  0
  -13.5215  -27.8453   18.8944 H   0  0  0  0  0  0  0  0  0  0  0  0
  -11.1855  -26.2779   16.6496 H   0  0  0  0  0  0  0  0  0  0  0  0
  -10.5756  -27.9214   16.3897 H   0  0  0  0  0  0  0  0  0  0  0  0
  -11.4484  -27.9477   14.2293 H   0  0  0  0  0  0  0  0  0  0  0  0
  -11.7155  -26.2089   14.4373 H   0  0  0  0  0  0  0  0  0  0  0  0
  -13.6563  -28.4598   14.5767 H   0  0  0  0  0  0  0  0  0  0  0  0
  -13.9915  -26.7448   14.2814 H   0  0  0  0  0  0  0  0  0  0  0  0
  -13.9418  -26.2268   16.6189 H   0  0  0  0  0  0  0  0  0  0  0  0
  -14.6880  -27.8439   16.6434 H   0  0  0  0  0  0  0  0  0  0  0  0
  -11.2912  -21.7616   27.3754 H   0  0  0  0  0  0  0  0  0  0  0  0
  -11.3063  -21.6772   29.8628 H   0  0  0  0  0  0  0  0  0  0  0  0
  -11.0114  -23.7392   31.1946 H   0  0  0  0  0  0  0  0  0  0  0  0
  -10.7259  -25.9416   30.0592 H   0  0  0  0  0  0  0  0  0  0  0  0
  -10.7859  -27.0259   27.3918 H   0  0  0  0  0  0  0  0  0  0  0  0
  1  2  1  0
  2  3  1  0
  3  4  1  0
  4  5  1  0
  5  6  1  0
  5  7  1  0
  7  8  1  0
  8  9  1  0
  9 10  1  0
 10 11  1  0
 11 12  1  0
  2 13  1  0
 13 14  2  0
 14 15  1  0
 15 16  2  0
 16 17  1  0
 17 18  2  0
 18 19  1  0
 19 20  2  0
 20 21  1  0
 12  8  1  0
 21 13  1  0
 20 15  1  0
  1 22  1  0
  1 23  1  0
  1 24  1  0
  2 25  1  0
  3 26  1  0
  4 27  1  0
  4 28  1  0
  5 29  1  0
  6 30  1  0
  7 31  1  0
  7 32  1  0
  9 33  1  0
  9 34  1  0
 10 35  1  0
 10 36  1  0
 11 37  1  0
 11 38  1  0
 12 39  1  0
 12 40  1  0
 16 41  1  0
 17 42  1  0
 18 43  1  0
 19 44  1  0
 21 45  1  0
M  END
>  <Energy>  (561) 
547.9581683673963

>  <compound_id>  (561) 
9254

>  <target_id>  (561) 
1

>  <reference_id>  (561) 
52

>  <inspiration_ids>  (561) 
[52, 30]

>  <energy_score>  (561) 
450.1826771011411

>  <distance_score>  (561) 
4.881948871079108

>  <path>  (561) 
/opt/xchem-fragalysis-2/maxwin/BulkDock/SCRATCH/511014/C9254-P52/C9254-P52.minimised.mol

>  <scratch_subdir>  (561) 
/opt/xchem-fragalysis-2/maxwin/BulkDock/SCRATCH/511014/C9254-P52

>  <fragmenstein_runtime>  (561) 
9.866747617721558

>  <fragmenstein_outcome>  (561) 
too moved

>  <fragmenstein_mode>  (561) 
expansion

>  <fragmenstein_error>  (561) 


$$$$
C9254-P30
     RDKit          3D

 45 47  0  0  0  0  0  0  0  0999 V2000
  -10.7188  -21.6726   22.5845 C   0  0  0  0  0  0  0  0  0  0  0  0
  -12.1377  -22.1830   22.4784 C   0  0  0  0  0  0  0  0  0  0  0  0
  -12.5557  -22.8170   21.1628 N   0  0  0  0  0  0  0  0  0  0  0  0
  -12.5618  -24.2546   20.3537 C   0  0  0  0  0  0  0  0  0  0  0  0
  -13.5685  -25.2965   19.1959 C   0  0  0  0  0  0  0  0  0  0  0  0
  -14.1046  -26.4575   19.7958 O   0  0  0  0  0  0  0  0  0  0  0  0
  -13.3421  -25.7982   17.6874 C   0  0  0  0  0  0  0  0  0  0  0  0
  -12.3868  -26.9064   17.4635 N   0  0  0  0  0  0  0  0  0  0  0  0
  -11.6231  -26.7061   16.2071 C   0  0  0  0  0  0  0  0  0  0  0  0
  -12.5477  -27.1099   15.0702 C   0  0  0  0  0  0  0  0  0  0  0  0
  -13.4821  -28.1332   15.6917 C   0  0  0  0  0  0  0  0  0  0  0  0
  -13.1061  -28.1677   17.1713 C   0  0  0  0  0  0  0  0  0  0  0  0
  -12.7997  -22.3289   23.8889 C   0  0  0  0  0  0  0  0  0  0  0  0
  -12.3887  -21.6852   24.9693 N   0  0  0  0  0  0  0  0  0  0  0  0
  -12.4812  -22.6134   25.9945 C   0  0  0  0  0  0  0  0  0  0  0  0
  -11.7193  -22.7164   27.1473 C   0  0  0  0  0  0  0  0  0  0  0  0
  -11.1015  -23.9636   27.1767 C   0  0  0  0  0  0  0  0  0  0  0  0
  -11.7041  -25.0906   26.5832 C   0  0  0  0  0  0  0  0  0  0  0  0
  -12.9859  -25.0007   26.0351 C   0  0  0  0  0  0  0  0  0  0  0  0
  -13.2012  -23.7064   25.5627 C   0  0  0  0  0  0  0  0  0  0  0  0
  -13.7152  -23.2632   24.3501 N   0  0  0  0  0  0  0  0  0  0  0  0
  -10.2431  -21.6070   21.6040 H   0  0  0  0  0  0  0  0  0  0  0  0
  -10.7489  -20.6809   23.0341 H   0  0  0  0  0  0  0  0  0  0  0  0
  -10.0972  -22.2505   23.2585 H   0  0  0  0  0  0  0  0  0  0  0  0
  -12.5392  -21.2107   22.2898 H   0  0  0  0  0  0  0  0  0  0  0  0
  -12.2725  -22.1116   20.4626 H   0  0  0  0  0  0  0  0  0  0  0  0
  -11.5585  -24.6153   20.4651 H   0  0  0  0  0  0  0  0  0  0  0  0
  -12.6734  -23.6073   19.5300 H   0  0  0  0  0  0  0  0  0  0  0  0
  -14.3933  -24.6612   18.9375 H   0  0  0  0  0  0  0  0  0  0  0  0
  -13.3578  -27.0773   19.6534 H   0  0  0  0  0  0  0  0  0  0  0  0
  -14.3381  -26.1406   17.3591 H   0  0  0  0  0  0  0  0  0  0  0  0
  -13.1921  -24.9562   17.0175 H   0  0  0  0  0  0  0  0  0  0  0  0
  -11.2489  -25.6920   16.0732 H   0  0  0  0  0  0  0  0  0  0  0  0
  -10.7456  -27.3650   16.2266 H   0  0  0  0  0  0  0  0  0  0  0  0
  -11.9926  -27.5232   14.2225 H   0  0  0  0  0  0  0  0  0  0  0  0
  -13.1224  -26.2484   14.7107 H   0  0  0  0  0  0  0  0  0  0  0  0
  -13.3612  -29.1197   15.2323 H   0  0  0  0  0  0  0  0  0  0  0  0
  -14.5242  -27.8239   15.5550 H   0  0  0  0  0  0  0  0  0  0  0  0
  -13.9743  -28.3404   17.8168 H   0  0  0  0  0  0  0  0  0  0  0  0
  -12.4227  -29.0049   17.3520 H   0  0  0  0  0  0  0  0  0  0  0  0
  -11.2684  -21.8574   27.6213 H   0  0  0  0  0  0  0  0  0  0  0  0
  -10.1883  -24.0849   27.7519 H   0  0  0  0  0  0  0  0  0  0  0  0
  -11.2187  -26.0566   26.6948 H   0  0  0  0  0  0  0  0  0  0  0  0
  -13.4922  -25.8627   25.6233 H   0  0  0  0  0  0  0  0  0  0  0  0
  -14.1037  -23.9369   23.7430 H   0  0  0  0  0  0  0  0  0  0  0  0
  1  2  1  0
  2  3  1  0
  3  4  1  0
  4  5  1  0
  5  6  1  0
  5  7  1  0
  7  8  1  0
  8  9  1  0
  9 10  1  0
 10 11  1  0
 11 12  1  0
  2 13  1  0
 13 14  2  0
 14 15  1  0
 15 16  2  0
 16 17  1  0
 17 18  2  0
 18 19  1  0
 19 20  2  0
 20 21  1  0
 12  8  1  0
 21 13  1  0
 20 15  1  0
  1 22  1  0
  1 23  1  0
  1 24  1  0
  2 25  1  0
  3 26  1  0
  4 27  1  0
  4 28  1  0
  5 29  1  0
  6 30  1  0
  7 31  1  0
  7 32  1  0
  9 33  1  0
  9 34  1  0
 10 35  1  0
 10 36  1  0
 11 37  1  0
 11 38  1  0
 12 39  1  0
 12 40  1  0
 16 41  1  0
 17 42  1  0
 18 43  1  0
 19 44  1  0
 21 45  1  0
M  END
>  <Energy>  (562) 
266.96798557802612

>  <compound_id>  (562) 
9254

>  <target_id>  (562) 
1

>  <reference_id>  (562) 
30

>  <inspiration_ids>  (562) 
[52, 30]

>  <energy_score>  (562) 
169.19249431177457

>  <distance_score>  (562) 
5.694321958372963

>  <path>  (562) 
/opt/xchem-fragalysis-2/maxwin/BulkDock/SCRATCH/511014/C9254-P30/C9254-P30.minimised.mol

>  <scratch_subdir>  (562) 
/opt/xchem-fragalysis-2/maxwin/BulkDock/SCRATCH/511014/C9254-P30

>  <fragmenstein_runtime>  (562) 
12.475358724594116

>  <fragmenstein_outcome>  (562) 
too moved

>  <fragmenstein_mode>  (562) 
expansion

>  <fragmenstein_error>  (562) 


$$$$
C9255-P52
     RDKit          3D

 48 50  0  0  0  0  0  0  0  0999 V2000
  -13.9930  -22.2541   24.0134 C   0  0  0  0  0  0  0  0  0  0  0  0
  -12.6375  -22.5014   23.2889 C   0  0  0  0  0  0  0  0  0  0  0  0
  -12.4345  -22.7011   21.4502 N   0  0  0  0  0  0  0  0  0  0  0  0
  -12.5483  -24.1715   20.1880 C   0  0  0  0  0  0  0  0  0  0  0  0
  -13.3000  -25.2503   18.7624 C   0  0  0  0  0  0  0  0  0  0  0  0
  -13.7946  -26.4755   19.3542 O   0  0  0  0  0  0  0  0  0  0  0  0
  -12.6677  -26.0995   17.4266 C   0  0  0  0  0  0  0  0  0  0  0  0
  -13.5397  -26.0165   16.2328 N   0  0  0  0  0  0  0  0  0  0  0  0
  -14.8546  -26.6300   16.3791 C   0  0  0  0  0  0  0  0  0  0  0  0
  -15.3591  -26.6893   14.9399 C   0  0  0  0  0  0  0  0  0  0  0  0
  -14.1100  -26.6156   14.0662 C   0  0  0  0  0  0  0  0  0  0  0  0
  -12.9526  -26.6509   15.0483 C   0  0  0  0  0  0  0  0  0  0  0  0
  -11.8823  -22.9583   24.8637 C   0  0  0  0  0  0  0  0  0  0  0  0
  -11.6405  -22.0311   25.8029 N   0  0  0  0  0  0  0  0  0  0  0  0
  -11.4438  -22.6204   27.0392 C   0  0  0  0  0  0  0  0  0  0  0  0
  -11.1321  -22.0735   28.2974 C   0  0  0  0  0  0  0  0  0  0  0  0
  -11.0234  -22.9254   29.4087 C   0  0  0  0  0  0  0  0  0  0  0  0
  -11.1923  -24.3008   29.2710 C   0  0  0  0  0  0  0  0  0  0  0  0
  -11.5312  -24.8556   28.0329 C   0  0  0  0  0  0  0  0  0  0  0  0
  -11.6591  -23.9748   26.9444 C   0  0  0  0  0  0  0  0  0  0  0  0
  -12.1980  -24.1116   25.6734 N   0  0  0  0  0  0  0  0  0  0  0  0
  -13.2537  -25.0883   25.4933 C   0  0  0  0  0  0  0  0  0  0  0  0
  -13.9893  -22.4311   25.0891 H   0  0  0  0  0  0  0  0  0  0  0  0
  -14.3433  -21.2350   23.9345 H   0  0  0  0  0  0  0  0  0  0  0  0
  -14.7697  -22.9287   23.7866 H   0  0  0  0  0  0  0  0  0  0  0  0
  -12.1539  -21.5100   23.2583 H   0  0  0  0  0  0  0  0  0  0  0  0
  -11.4644  -22.3784   21.3029 H   0  0  0  0  0  0  0  0  0  0  0  0
  -13.3239  -24.6693   20.7940 H   0  0  0  0  0  0  0  0  0  0  0  0
  -12.6947  -23.3277   19.5007 H   0  0  0  0  0  0  0  0  0  0  0  0
  -14.0824  -24.6246   18.3224 H   0  0  0  0  0  0  0  0  0  0  0  0
  -12.9786  -26.9947   19.4547 H   0  0  0  0  0  0  0  0  0  0  0  0
  -12.5572  -27.1687   17.6635 H   0  0  0  0  0  0  0  0  0  0  0  0
  -11.6566  -25.8384   17.1105 H   0  0  0  0  0  0  0  0  0  0  0  0
  -14.7854  -27.6440   16.7922 H   0  0  0  0  0  0  0  0  0  0  0  0
  -15.5295  -26.0411   17.0074 H   0  0  0  0  0  0  0  0  0  0  0  0
  -15.9225  -27.6103   14.7579 H   0  0  0  0  0  0  0  0  0  0  0  0
  -16.0185  -25.8420   14.7190 H   0  0  0  0  0  0  0  0  0  0  0  0
  -14.1091  -25.6758   13.5006 H   0  0  0  0  0  0  0  0  0  0  0  0
  -14.0626  -27.4409   13.3491 H   0  0  0  0  0  0  0  0  0  0  0  0
  -12.6558  -27.6875   15.2520 H   0  0  0  0  0  0  0  0  0  0  0  0
  -12.0853  -26.1065   14.6622 H   0  0  0  0  0  0  0  0  0  0  0  0
  -10.9817  -21.0042   28.3984 H   0  0  0  0  0  0  0  0  0  0  0  0
  -10.8044  -22.5051   30.3871 H   0  0  0  0  0  0  0  0  0  0  0  0
  -11.0843  -24.9420   30.1424 H   0  0  0  0  0  0  0  0  0  0  0  0
  -11.7210  -25.9180   27.9297 H   0  0  0  0  0  0  0  0  0  0  0  0
  -13.8148  -24.9047   24.5819 H   0  0  0  0  0  0  0  0  0  0  0  0
  -12.7976  -26.0806   25.4700 H   0  0  0  0  0  0  0  0  0  0  0  0
  -13.9479  -25.0177   26.3368 H   0  0  0  0  0  0  0  0  0  0  0  0
  1  2  1  0
  2  3  1  0
  3  4  1  0
  4  5  1  0
  5  6  1  0
  5  7  1  0
  7  8  1  0
  8  9  1  0
  9 10  1  0
 10 11  1  0
 11 12  1  0
  2 13  1  0
 13 14  2  0
 14 15  1  0
 15 16  2  0
 16 17  1  0
 17 18  2  0
 18 19  1  0
 19 20  2  0
 20 21  1  0
 21 22  1  0
 12  8  1  0
 21 13  1  0
 20 15  1  0
  1 23  1  0
  1 24  1  0
  1 25  1  0
  2 26  1  0
  3 27  1  0
  4 28  1  0
  4 29  1  0
  5 30  1  0
  6 31  1  0
  7 32  1  0
  7 33  1  0
  9 34  1  0
  9 35  1  0
 10 36  1  0
 10 37  1  0
 11 38  1  0
 11 39  1  0
 12 40  1  0
 12 41  1  0
 16 42  1  0
 17 43  1  0
 18 44  1  0
 19 45  1  0
 22 46  1  0
 22 47  1  0
 22 48  1  0
M  END
>  <Energy>  (563) 
418.98383876503215

>  <compound_id>  (563) 
9255

>  <target_id>  (563) 
1

>  <reference_id>  (563) 
52

>  <inspiration_ids>  (563) 
[52, 30]

>  <energy_score>  (563) 
294.1931474588794

>  <distance_score>  (563) 
4.586400898779554

>  <path>  (563) 
/opt/xchem-fragalysis-2/maxwin/BulkDock/SCRATCH/511014/C9255-P52/C9255-P52.minimised.mol

>  <scratch_subdir>  (563) 
/opt/xchem-fragalysis-2/maxwin/BulkDock/SCRATCH/511014/C9255-P52

>  <fragmenstein_runtime>  (563) 
9.296754837036133

>  <fragmenstein_outcome>  (563) 
too moved

>  <fragmenstein_mode>  (563) 
expansion

>  <fragmenstein_error>  (563) 


$$$$
C9255-P30
     RDKit          3D

 48 50  0  0  0  0  0  0  0  0999 V2000
  -15.1137  -22.0769   24.1316 C   0  0  0  0  0  0  0  0  0  0  0  0
  -13.7404  -22.7487   23.8495 C   0  0  0  0  0  0  0  0  0  0  0  0
  -12.8283  -22.3895   22.6146 N   0  0  0  0  0  0  0  0  0  0  0  0
  -12.5670  -23.1431   21.0231 C   0  0  0  0  0  0  0  0  0  0  0  0
  -12.9994  -24.6008   19.7788 C   0  0  0  0  0  0  0  0  0  0  0  0
  -13.7298  -25.7033   20.1783 O   0  0  0  0  0  0  0  0  0  0  0  0
  -13.9414  -24.9497   18.2301 C   0  0  0  0  0  0  0  0  0  0  0  0
  -13.2847  -25.6379   17.0934 N   0  0  0  0  0  0  0  0  0  0  0  0
  -14.1748  -25.7787   15.9356 C   0  0  0  0  0  0  0  0  0  0  0  0
  -13.3856  -26.6923   15.0127 C   0  0  0  0  0  0  0  0  0  0  0  0
  -12.4490  -27.4643   15.9367 C   0  0  0  0  0  0  0  0  0  0  0  0
  -12.7765  -26.9758   17.3428 C   0  0  0  0  0  0  0  0  0  0  0  0
  -13.4708  -23.5891   25.1114 C   0  0  0  0  0  0  0  0  0  0  0  0
  -14.1665  -24.7192   25.2896 N   0  0  0  0  0  0  0  0  0  0  0  0
  -13.3166  -25.5542   25.9123 C   0  0  0  0  0  0  0  0  0  0  0  0
  -13.3934  -26.9378   26.0085 C   0  0  0  0  0  0  0  0  0  0  0  0
  -12.2425  -27.6047   26.4009 C   0  0  0  0  0  0  0  0  0  0  0  0
  -11.1396  -26.9033   26.8380 C   0  0  0  0  0  0  0  0  0  0  0  0
  -11.0429  -25.5059   26.7337 C   0  0  0  0  0  0  0  0  0  0  0  0
  -12.1944  -24.8578   26.3199 C   0  0  0  0  0  0  0  0  0  0  0  0
  -12.5373  -23.5374   26.1166 N   0  0  0  0  0  0  0  0  0  0  0  0
  -12.0609  -22.4284   26.8839 C   0  0  0  0  0  0  0  0  0  0  0  0
  -15.4967  -22.3519   25.1156 H   0  0  0  0  0  0  0  0  0  0  0  0
  -15.0746  -20.9946   24.0834 H   0  0  0  0  0  0  0  0  0  0  0  0
  -15.9401  -22.4248   23.5145 H   0  0  0  0  0  0  0  0  0  0  0  0
  -14.0165  -23.6434   23.3793 H   0  0  0  0  0  0  0  0  0  0  0  0
  -11.9071  -22.0655   22.9186 H   0  0  0  0  0  0  0  0  0  0  0  0
  -11.5261  -23.3459   21.1482 H   0  0  0  0  0  0  0  0  0  0  0  0
  -12.4509  -22.2526   20.4024 H   0  0  0  0  0  0  0  0  0  0  0  0
  -12.9778  -23.7757   19.0968 H   0  0  0  0  0  0  0  0  0  0  0  0
  -13.1612  -26.4453   19.8977 H   0  0  0  0  0  0  0  0  0  0  0  0
  -14.8477  -25.5312   18.4559 H   0  0  0  0  0  0  0  0  0  0  0  0
  -14.3220  -24.0189   17.8167 H   0  0  0  0  0  0  0  0  0  0  0  0
  -15.1235  -26.2553   16.2133 H   0  0  0  0  0  0  0  0  0  0  0  0
  -14.3947  -24.8190   15.4574 H   0  0  0  0  0  0  0  0  0  0  0  0
  -14.0445  -27.3620   14.4511 H   0  0  0  0  0  0  0  0  0  0  0  0
  -12.8000  -26.1104   14.2915 H   0  0  0  0  0  0  0  0  0  0  0  0
  -11.4067  -27.2371   15.6819 H   0  0  0  0  0  0  0  0  0  0  0  0
  -12.5876  -28.5463   15.8457 H   0  0  0  0  0  0  0  0  0  0  0  0
  -13.5361  -27.6208   17.8013 H   0  0  0  0  0  0  0  0  0  0  0  0
  -11.8862  -26.9744   17.9748 H   0  0  0  0  0  0  0  0  0  0  0  0
  -14.2741  -27.4651   25.6586 H   0  0  0  0  0  0  0  0  0  0  0  0
  -12.2059  -28.6923   26.4150 H   0  0  0  0  0  0  0  0  0  0  0  0
  -10.3746  -27.4908   27.3287 H   0  0  0  0  0  0  0  0  0  0  0  0
  -10.1919  -24.9323   27.0715 H   0  0  0  0  0  0  0  0  0  0  0  0
  -12.7429  -22.2117   27.6913 H   0  0  0  0  0  0  0  0  0  0  0  0
  -12.0009  -21.5524   26.2470 H   0  0  0  0  0  0  0  0  0  0  0  0
  -11.1136  -22.6854   27.3531 H   0  0  0  0  0  0  0  0  0  0  0  0
  1  2  1  0
  2  3  1  0
  3  4  1  0
  4  5  1  0
  5  6  1  0
  5  7  1  0
  7  8  1  0
  8  9  1  0
  9 10  1  0
 10 11  1  0
 11 12  1  0
  2 13  1  0
 13 14  2  0
 14 15  1  0
 15 16  2  0
 16 17  1  0
 17 18  2  0
 18 19  1  0
 19 20  2  0
 20 21  1  0
 21 22  1  0
 12  8  1  0
 21 13  1  0
 20 15  1  0
  1 23  1  0
  1 24  1  0
  1 25  1  0
  2 26  1  0
  3 27  1  0
  4 28  1  0
  4 29  1  0
  5 30  1  0
  6 31  1  0
  7 32  1  0
  7 33  1  0
  9 34  1  0
  9 35  1  0
 10 36  1  0
 10 37  1  0
 11 38  1  0
 11 39  1  0
 12 40  1  0
 12 41  1  0
 16 42  1  0
 17 43  1  0
 18 44  1  0
 19 45  1  0
 22 46  1  0
 22 47  1  0
 22 48  1  0
M  END
>  <Energy>  (564) 
382.74349465941714

>  <compound_id>  (564) 
9255

>  <target_id>  (564) 
1

>  <reference_id>  (564) 
30

>  <inspiration_ids>  (564) 
[52, 30]

>  <energy_score>  (564) 
257.9528033532696

>  <distance_score>  (564) 
5.53678873633177

>  <path>  (564) 
/opt/xchem-fragalysis-2/maxwin/BulkDock/SCRATCH/511014/C9255-P30/C9255-P30.minimised.mol

>  <scratch_subdir>  (564) 
/opt/xchem-fragalysis-2/maxwin/BulkDock/SCRATCH/511014/C9255-P30

>  <fragmenstein_runtime>  (564) 
11.375403642654419

>  <fragmenstein_outcome>  (564) 
too moved

>  <fragmenstein_mode>  (564) 
expansion

>  <fragmenstein_error>  (564) 


$$$$
C9261-P52
     RDKit          3D

 46 48  0  0  0  0  0  0  0  0999 V2000
  -10.7421  -27.5144   18.1301 C   0  0  0  0  0  0  0  0  0  0  0  0
  -11.2518  -28.1190   19.6679 C   0  0  0  0  0  0  0  0  0  0  0  0
  -11.2942  -29.8717   19.4072 C   0  0  0  0  0  0  0  0  0  0  0  0
  -10.4287  -27.4047   21.5714 C   0  0  0  0  0  0  0  0  0  0  0  0
  -10.8750  -27.1816   23.5571 N   0  0  0  0  0  0  0  0  0  0  0  0
  -11.4716  -26.0504   24.9204 C   0  0  0  0  0  0  0  0  0  0  0  0
  -11.4848  -25.9911   26.5132 C   0  0  0  0  0  0  0  0  0  0  0  0
  -12.0181  -26.9376   27.4063 C   0  0  0  0  0  0  0  0  0  0  0  0
  -11.9806  -26.8019   28.8223 C   0  0  0  0  0  0  0  0  0  0  0  0
  -11.5169  -25.5934   29.3443 C   0  0  0  0  0  0  0  0  0  0  0  0
  -11.3005  -25.1228   30.6150 N   0  0  0  0  0  0  0  0  0  0  0  0
  -11.0122  -23.7907   30.5335 C   0  0  0  0  0  0  0  0  0  0  0  0
  -10.9600  -23.3933   29.2852 N   0  0  0  0  0  0  0  0  0  0  0  0
  -11.2120  -24.5170   28.5253 C   0  0  0  0  0  0  0  0  0  0  0  0
  -11.2574  -24.7257   27.1304 C   0  0  0  0  0  0  0  0  0  0  0  0
  -11.2826  -23.2382   26.2781 Cl  0  0  0  0  0  0  0  0  0  0  0  0
  -12.9062  -27.7007   18.8404 C   0  0  0  0  0  0  0  0  0  0  0  0
  -13.3412  -26.5953   19.0509 O   0  0  0  0  0  0  0  0  0  0  0  0
  -13.4994  -28.8241   18.1188 N   0  0  0  0  0  0  0  0  0  0  0  0
  -14.8625  -28.9881   17.5184 C   0  0  0  0  0  0  0  0  0  0  0  0
  -14.9693  -30.1232   16.5464 C   0  0  0  0  0  0  0  0  0  0  0  0
  -13.7565  -29.8345   15.7562 C   0  0  0  0  0  0  0  0  0  0  0  0
  -13.1073  -28.7796   16.6386 C   0  0  0  0  0  0  0  0  0  0  0  0
  -10.7404  -28.3496   17.4414 H   0  0  0  0  0  0  0  0  0  0  0  0
   -9.7458  -27.2083   17.9240 H   0  0  0  0  0  0  0  0  0  0  0  0
  -11.3495  -26.7080   17.7118 H   0  0  0  0  0  0  0  0  0  0  0  0
  -10.8790  -30.3627   20.2925 H   0  0  0  0  0  0  0  0  0  0  0  0
  -12.3095  -30.2824   19.3434 H   0  0  0  0  0  0  0  0  0  0  0  0
  -10.8241  -30.1353   18.4588 H   0  0  0  0  0  0  0  0  0  0  0  0
  -10.0233  -26.4189   21.3091 H   0  0  0  0  0  0  0  0  0  0  0  0
   -9.8008  -27.5274   22.4471 H   0  0  0  0  0  0  0  0  0  0  0  0
  -11.7770  -27.6069   23.5699 H   0  0  0  0  0  0  0  0  0  0  0  0
  -12.5447  -25.8741   24.7880 H   0  0  0  0  0  0  0  0  0  0  0  0
  -10.8487  -25.1781   24.7953 H   0  0  0  0  0  0  0  0  0  0  0  0
  -12.4924  -27.8370   27.0136 H   0  0  0  0  0  0  0  0  0  0  0  0
  -12.3233  -27.6094   29.4618 H   0  0  0  0  0  0  0  0  0  0  0  0
  -11.3468  -25.6558   31.4687 H   0  0  0  0  0  0  0  0  0  0  0  0
  -10.8439  -23.1719   31.4061 H   0  0  0  0  0  0  0  0  0  0  0  0
  -15.2289  -28.0245   17.1230 H   0  0  0  0  0  0  0  0  0  0  0  0
  -15.5344  -29.1905   18.3617 H   0  0  0  0  0  0  0  0  0  0  0  0
  -15.8927  -30.1026   15.9619 H   0  0  0  0  0  0  0  0  0  0  0  0
  -14.8927  -31.0907   17.0543 H   0  0  0  0  0  0  0  0  0  0  0  0
  -13.1321  -30.7280   15.6479 H   0  0  0  0  0  0  0  0  0  0  0  0
  -13.9686  -29.4412   14.7572 H   0  0  0  0  0  0  0  0  0  0  0  0
  -12.0562  -29.0153   16.5411 H   0  0  0  0  0  0  0  0  0  0  0  0
  -13.2299  -27.7577   16.2439 H   0  0  0  0  0  0  0  0  0  0  0  0
  1  2  1  0
  2  3  1  0
  2  4  1  0
  4  5  1  0
  5  6  1  0
  6  7  1  0
  7  8  2  0
  8  9  1  0
  9 10  2  0
 10 11  1  0
 11 12  1  0
 12 13  2  0
 13 14  1  0
 14 15  2  0
 15 16  1  0
  2 17  1  0
 17 18  2  0
 17 19  1  0
 19 20  1  0
 20 21  1  0
 21 22  1  0
 22 23  1  0
 15  7  1  0
 23 19  1  0
 14 10  1  0
  1 24  1  0
  1 25  1  0
  1 26  1  0
  3 27  1  0
  3 28  1  0
  3 29  1  0
  4 30  1  0
  4 31  1  0
  5 32  1  0
  6 33  1  0
  6 34  1  0
  8 35  1  0
  9 36  1  0
 11 37  1  0
 12 38  1  0
 20 39  1  0
 20 40  1  0
 21 41  1  0
 21 42  1  0
 22 43  1  0
 22 44  1  0
 23 45  1  0
 23 46  1  0
M  END
>  <Energy>  (565) 
651.34873513889897

>  <compound_id>  (565) 
9261

>  <target_id>  (565) 
1

>  <reference_id>  (565) 
52

>  <inspiration_ids>  (565) 
[52, 30]

>  <energy_score>  (565) 
553.263077445655

>  <distance_score>  (565) 
5.729455651942593

>  <path>  (565) 
/opt/xchem-fragalysis-2/maxwin/BulkDock/SCRATCH/511014/C9261-P52/C9261-P52.minimised.mol

>  <scratch_subdir>  (565) 
/opt/xchem-fragalysis-2/maxwin/BulkDock/SCRATCH/511014/C9261-P52

>  <fragmenstein_runtime>  (565) 
10.500104665756226

>  <fragmenstein_outcome>  (565) 
too moved

>  <fragmenstein_mode>  (565) 
expansion

>  <fragmenstein_error>  (565) 


$$$$
C9261-P30
     RDKit          3D

 46 48  0  0  0  0  0  0  0  0999 V2000
  -17.4291  -26.0257   25.8042 C   0  0  0  0  0  0  0  0  0  0  0  0
  -16.5663  -27.3121   25.8400 C   0  0  0  0  0  0  0  0  0  0  0  0
  -16.7505  -27.9078   27.2517 C   0  0  0  0  0  0  0  0  0  0  0  0
  -15.0591  -26.9317   25.5759 C   0  0  0  0  0  0  0  0  0  0  0  0
  -13.9288  -27.7489   26.1092 N   0  0  0  0  0  0  0  0  0  0  0  0
  -13.2229  -27.0986   27.2387 C   0  0  0  0  0  0  0  0  0  0  0  0
  -11.8951  -27.7304   27.8849 C   0  0  0  0  0  0  0  0  0  0  0  0
  -11.0386  -28.0618   26.8823 C   0  0  0  0  0  0  0  0  0  0  0  0
  -10.0001  -28.9021   27.2400 C   0  0  0  0  0  0  0  0  0  0  0  0
   -9.2662  -28.4846   28.2770 C   0  0  0  0  0  0  0  0  0  0  0  0
   -8.1815  -28.7462   29.0547 N   0  0  0  0  0  0  0  0  0  0  0  0
   -7.8787  -27.6730   29.7106 C   0  0  0  0  0  0  0  0  0  0  0  0
   -9.0420  -27.4076   30.2087 N   0  0  0  0  0  0  0  0  0  0  0  0
   -9.9545  -27.8715   29.2486 C   0  0  0  0  0  0  0  0  0  0  0  0
  -11.3287  -28.0015   29.2262 C   0  0  0  0  0  0  0  0  0  0  0  0
  -11.4985  -28.3500   31.4102 Cl  0  0  0  0  0  0  0  0  0  0  0  0
  -17.1168  -28.3665   24.8004 C   0  0  0  0  0  0  0  0  0  0  0  0
  -16.8140  -29.5227   24.9696 O   0  0  0  0  0  0  0  0  0  0  0  0
  -17.9986  -27.7629   23.8326 N   0  0  0  0  0  0  0  0  0  0  0  0
  -18.9011  -28.3854   22.8050 C   0  0  0  0  0  0  0  0  0  0  0  0
  -19.3320  -27.4113   21.7238 C   0  0  0  0  0  0  0  0  0  0  0  0
  -18.0837  -26.6192   21.5939 C   0  0  0  0  0  0  0  0  0  0  0  0
  -17.2316  -27.3724   22.5929 C   0  0  0  0  0  0  0  0  0  0  0  0
  -17.2273  -25.4269   24.9093 H   0  0  0  0  0  0  0  0  0  0  0  0
  -17.2421  -25.3940   26.6744 H   0  0  0  0  0  0  0  0  0  0  0  0
  -18.5011  -26.2563   25.8236 H   0  0  0  0  0  0  0  0  0  0  0  0
  -17.8074  -28.1273   27.4455 H   0  0  0  0  0  0  0  0  0  0  0  0
  -16.2093  -28.8504   27.3794 H   0  0  0  0  0  0  0  0  0  0  0  0
  -16.4098  -27.2120   28.0249 H   0  0  0  0  0  0  0  0  0  0  0  0
  -14.9038  -26.8924   24.4956 H   0  0  0  0  0  0  0  0  0  0  0  0
  -14.9007  -25.8906   25.8631 H   0  0  0  0  0  0  0  0  0  0  0  0
  -14.2744  -28.6425   26.4846 H   0  0  0  0  0  0  0  0  0  0  0  0
  -13.9904  -26.9327   27.9818 H   0  0  0  0  0  0  0  0  0  0  0  0
  -12.9058  -26.1223   26.8439 H   0  0  0  0  0  0  0  0  0  0  0  0
  -11.3676  -27.9570   25.8576 H   0  0  0  0  0  0  0  0  0  0  0  0
  -10.0641  -29.9634   27.1073 H   0  0  0  0  0  0  0  0  0  0  0  0
   -7.9543  -29.5854   29.5656 H   0  0  0  0  0  0  0  0  0  0  0  0
   -6.9390  -27.1341   29.6757 H   0  0  0  0  0  0  0  0  0  0  0  0
  -19.7874  -28.7146   23.3634 H   0  0  0  0  0  0  0  0  0  0  0  0
  -18.4737  -29.3256   22.4166 H   0  0  0  0  0  0  0  0  0  0  0  0
  -20.1647  -26.7830   22.0572 H   0  0  0  0  0  0  0  0  0  0  0  0
  -19.6275  -27.9242   20.8043 H   0  0  0  0  0  0  0  0  0  0  0  0
  -17.6587  -26.6301   20.5867 H   0  0  0  0  0  0  0  0  0  0  0  0
  -18.2438  -25.5810   21.9035 H   0  0  0  0  0  0  0  0  0  0  0  0
  -16.7397  -28.2397   22.1278 H   0  0  0  0  0  0  0  0  0  0  0  0
  -16.4151  -26.7196   22.9143 H   0  0  0  0  0  0  0  0  0  0  0  0
  1  2  1  0
  2  3  1  0
  2  4  1  0
  4  5  1  0
  5  6  1  0
  6  7  1  0
  7  8  2  0
  8  9  1  0
  9 10  2  0
 10 11  1  0
 11 12  1  0
 12 13  2  0
 13 14  1  0
 14 15  2  0
 15 16  1  0
  2 17  1  0
 17 18  2  0
 17 19  1  0
 19 20  1  0
 20 21  1  0
 21 22  1  0
 22 23  1  0
 15  7  1  0
 23 19  1  0
 14 10  1  0
  1 24  1  0
  1 25  1  0
  1 26  1  0
  3 27  1  0
  3 28  1  0
  3 29  1  0
  4 30  1  0
  4 31  1  0
  5 32  1  0
  6 33  1  0
  6 34  1  0
  8 35  1  0
  9 36  1  0
 11 37  1  0
 12 38  1  0
 20 39  1  0
 20 40  1  0
 21 41  1  0
 21 42  1  0
 22 43  1  0
 22 44  1  0
 23 45  1  0
 23 46  1  0
M  END
>  <Energy>  (566) 
318.83005605088943

>  <compound_id>  (566) 
9261

>  <target_id>  (566) 
1

>  <reference_id>  (566) 
30

>  <inspiration_ids>  (566) 
[52, 30]

>  <energy_score>  (566) 
220.7443983576528

>  <distance_score>  (566) 
9.960979602242118

>  <path>  (566) 
/opt/xchem-fragalysis-2/maxwin/BulkDock/SCRATCH/511014/C9261-P30/C9261-P30.minimised.mol

>  <scratch_subdir>  (566) 
/opt/xchem-fragalysis-2/maxwin/BulkDock/SCRATCH/511014/C9261-P30

>  <fragmenstein_runtime>  (566) 
17.482313632965088

>  <fragmenstein_outcome>  (566) 
too moved

>  <fragmenstein_mode>  (566) 
expansion

>  <fragmenstein_error>  (566) 


$$$$
C9264-P52
     RDKit          3D

 49 52  0  0  0  0  0  0  0  0999 V2000
  -10.9171  -23.6106   31.5774 C   0  0  0  0  0  0  0  0  0  0  0  0
  -11.1558  -22.2354   31.5561 C   0  0  0  0  0  0  0  0  0  0  0  0
  -11.4417  -21.5655   30.3575 C   0  0  0  0  0  0  0  0  0  0  0  0
  -11.5122  -22.3445   29.1996 C   0  0  0  0  0  0  0  0  0  0  0  0
  -11.7049  -22.0424   27.8703 N   0  0  0  0  0  0  0  0  0  0  0  0
  -11.9012  -23.2204   27.1837 C   0  0  0  0  0  0  0  0  0  0  0  0
  -12.4704  -23.2617   25.9280 N   0  0  0  0  0  0  0  0  0  0  0  0
  -11.8352  -22.4954   24.8376 C   0  0  0  0  0  0  0  0  0  0  0  0
  -12.4623  -22.4302   23.4056 C   0  0  0  0  0  0  0  0  0  0  0  0
  -13.4886  -23.5641   23.0174 C   0  0  0  0  0  0  0  0  0  0  0  0
  -13.6211  -24.6381   21.4816 O   0  0  0  0  0  0  0  0  0  0  0  0
  -12.9746  -24.7318   19.9793 C   0  0  0  0  0  0  0  0  0  0  0  0
  -13.3569  -26.0030   18.8372 C   0  0  0  0  0  0  0  0  0  0  0  0
  -13.7388  -25.6697   17.4330 N   0  0  0  0  0  0  0  0  0  0  0  0
  -15.1708  -25.6659   17.1467 C   0  0  0  0  0  0  0  0  0  0  0  0
  -15.2388  -25.6950   15.6226 C   0  0  0  0  0  0  0  0  0  0  0  0
  -13.9364  -26.3414   15.1775 C   0  0  0  0  0  0  0  0  0  0  0  0
  -13.2062  -26.6593   16.4727 C   0  0  0  0  0  0  0  0  0  0  0  0
  -13.9250  -24.4860   24.4332 C   0  0  0  0  0  0  0  0  0  0  0  0
  -12.9502  -24.5851   25.5880 C   0  0  0  0  0  0  0  0  0  0  0  0
  -11.6171  -24.2448   27.9652 N   0  0  0  0  0  0  0  0  0  0  0  0
  -11.3617  -23.7234   29.2094 C   0  0  0  0  0  0  0  0  0  0  0  0
  -11.0273  -24.3730   30.4079 C   0  0  0  0  0  0  0  0  0  0  0  0
  -10.6477  -24.0911   32.5142 H   0  0  0  0  0  0  0  0  0  0  0  0
  -11.0784  -21.6655   32.4805 H   0  0  0  0  0  0  0  0  0  0  0  0
  -11.5548  -20.4885   30.3298 H   0  0  0  0  0  0  0  0  0  0  0  0
  -11.8201  -21.1202   27.4808 H   0  0  0  0  0  0  0  0  0  0  0  0
  -10.8208  -22.8880   24.7207 H   0  0  0  0  0  0  0  0  0  0  0  0
  -11.8227  -21.4580   25.1726 H   0  0  0  0  0  0  0  0  0  0  0  0
  -13.0301  -21.5053   23.4626 H   0  0  0  0  0  0  0  0  0  0  0  0
  -11.7092  -22.2342   22.6351 H   0  0  0  0  0  0  0  0  0  0  0  0
  -14.3510  -22.9640   23.0828 H   0  0  0  0  0  0  0  0  0  0  0  0
  -11.9303  -24.7219   20.2019 H   0  0  0  0  0  0  0  0  0  0  0  0
  -13.0414  -23.8373   19.3468 H   0  0  0  0  0  0  0  0  0  0  0  0
  -12.4345  -26.5570   18.6566 H   0  0  0  0  0  0  0  0  0  0  0  0
  -14.0292  -26.7444   19.2666 H   0  0  0  0  0  0  0  0  0  0  0  0
  -15.6835  -24.7854   17.5324 H   0  0  0  0  0  0  0  0  0  0  0  0
  -15.6634  -26.5596   17.5506 H   0  0  0  0  0  0  0  0  0  0  0  0
  -15.3081  -24.6823   15.2109 H   0  0  0  0  0  0  0  0  0  0  0  0
  -16.1109  -26.2575   15.2740 H   0  0  0  0  0  0  0  0  0  0  0  0
  -14.1124  -27.2444   14.5844 H   0  0  0  0  0  0  0  0  0  0  0  0
  -13.3623  -25.6415   14.5601 H   0  0  0  0  0  0  0  0  0  0  0  0
  -12.1213  -26.5779   16.3494 H   0  0  0  0  0  0  0  0  0  0  0  0
  -13.4436  -27.6836   16.7897 H   0  0  0  0  0  0  0  0  0  0  0  0
  -14.2447  -25.4993   24.1639 H   0  0  0  0  0  0  0  0  0  0  0  0
  -14.7947  -23.9684   24.8702 H   0  0  0  0  0  0  0  0  0  0  0  0
  -13.5084  -25.0215   26.4294 H   0  0  0  0  0  0  0  0  0  0  0  0
  -12.1217  -25.2786   25.3959 H   0  0  0  0  0  0  0  0  0  0  0  0
  -10.8673  -25.4442   30.4211 H   0  0  0  0  0  0  0  0  0  0  0  0
  1  2  2  0
  2  3  1  0
  3  4  2  0
  4  5  1  0
  5  6  1  0
  6  7  1  0
  7  8  1  0
  8  9  1  0
  9 10  1  0
 10 11  1  0
 11 12  1  0
 12 13  1  0
 13 14  1  0
 14 15  1  0
 15 16  1  0
 16 17  1  0
 17 18  1  0
 10 19  1  0
 19 20  1  0
  6 21  2  0
 21 22  1  0
 22 23  2  0
 23  1  1  0
 22  4  1  0
 20  7  1  0
 18 14  1  0
  1 24  1  0
  2 25  1  0
  3 26  1  0
  5 27  1  0
  8 28  1  0
  8 29  1  0
  9 30  1  0
  9 31  1  0
 10 32  1  0
 12 33  1  0
 12 34  1  0
 13 35  1  0
 13 36  1  0
 15 37  1  0
 15 38  1  0
 16 39  1  0
 16 40  1  0
 17 41  1  0
 17 42  1  0
 18 43  1  0
 18 44  1  0
 19 45  1  0
 19 46  1  0
 20 47  1  0
 20 48  1  0
 23 49  1  0
M  END
>  <Energy>  (567) 
191.89101579661298

>  <compound_id>  (567) 
9264

>  <target_id>  (567) 
1

>  <reference_id>  (567) 
52

>  <inspiration_ids>  (567) 
[52, 30]

>  <energy_score>  (567) 
146.02207481679397

>  <distance_score>  (567) 
3.9786869896161807

>  <path>  (567) 
/opt/xchem-fragalysis-2/maxwin/BulkDock/SCRATCH/511014/C9264-P52/C9264-P52.minimised.mol

>  <scratch_subdir>  (567) 
/opt/xchem-fragalysis-2/maxwin/BulkDock/SCRATCH/511014/C9264-P52

>  <fragmenstein_runtime>  (567) 
9.65355396270752

>  <fragmenstein_outcome>  (567) 
too moved

>  <fragmenstein_mode>  (567) 
expansion

>  <fragmenstein_error>  (567) 


$$$$
C9264-P30
     RDKit          3D

 49 52  0  0  0  0  0  0  0  0999 V2000
   -7.5783  -23.1779   33.9922 C   0  0  0  0  0  0  0  0  0  0  0  0
   -7.5070  -21.8485   34.4103 C   0  0  0  0  0  0  0  0  0  0  0  0
   -8.4380  -21.0694   33.7243 C   0  0  0  0  0  0  0  0  0  0  0  0
   -9.7290  -21.6953   32.5288 C   0  0  0  0  0  0  0  0  0  0  0  0
  -10.8587  -21.1958   31.2478 N   0  0  0  0  0  0  0  0  0  0  0  0
  -11.2857  -22.2871   30.4040 C   0  0  0  0  0  0  0  0  0  0  0  0
  -11.1454  -22.4196   28.7456 N   0  0  0  0  0  0  0  0  0  0  0  0
  -10.4718  -23.5897   27.9061 C   0  0  0  0  0  0  0  0  0  0  0  0
  -11.0697  -23.7071   26.1961 C   0  0  0  0  0  0  0  0  0  0  0  0
  -12.2079  -22.7285   25.1553 C   0  0  0  0  0  0  0  0  0  0  0  0
  -12.9587  -22.9844   23.6406 O   0  0  0  0  0  0  0  0  0  0  0  0
  -12.3762  -22.7015   21.9434 C   0  0  0  0  0  0  0  0  0  0  0  0
  -12.4932  -24.0528   20.4763 C   0  0  0  0  0  0  0  0  0  0  0  0
  -13.5044  -25.0153   19.2935 N   0  0  0  0  0  0  0  0  0  0  0  0
  -14.1889  -24.5064   18.0526 C   0  0  0  0  0  0  0  0  0  0  0  0
  -14.4437  -25.6371   17.0652 C   0  0  0  0  0  0  0  0  0  0  0  0
  -13.2309  -26.4708   17.2288 C   0  0  0  0  0  0  0  0  0  0  0  0
  -12.9260  -26.3038   18.7149 C   0  0  0  0  0  0  0  0  0  0  0  0
  -13.0515  -22.9554   26.4193 C   0  0  0  0  0  0  0  0  0  0  0  0
  -12.4478  -22.3348   27.9707 C   0  0  0  0  0  0  0  0  0  0  0  0
  -11.0458  -23.3140   31.6271 N   0  0  0  0  0  0  0  0  0  0  0  0
  -10.0177  -23.1421   32.5736 C   0  0  0  0  0  0  0  0  0  0  0  0
   -8.9073  -23.8960   33.0478 C   0  0  0  0  0  0  0  0  0  0  0  0
   -6.6037  -23.6473   34.0234 H   0  0  0  0  0  0  0  0  0  0  0  0
   -6.7194  -21.4396   35.0237 H   0  0  0  0  0  0  0  0  0  0  0  0
   -8.5457  -20.0095   34.0235 H   0  0  0  0  0  0  0  0  0  0  0  0
  -10.8374  -20.2413   31.0232 H   0  0  0  0  0  0  0  0  0  0  0  0
  -10.4045  -24.5597   28.3631 H   0  0  0  0  0  0  0  0  0  0  0  0
   -9.4141  -23.3313   27.8269 H   0  0  0  0  0  0  0  0  0  0  0  0
  -10.8885  -22.7121   26.4920 H   0  0  0  0  0  0  0  0  0  0  0  0
  -10.2864  -24.1684   25.5998 H   0  0  0  0  0  0  0  0  0  0  0  0
  -12.0602  -21.6457   25.0900 H   0  0  0  0  0  0  0  0  0  0  0  0
  -11.3246  -22.5283   22.1534 H   0  0  0  0  0  0  0  0  0  0  0  0
  -12.6142  -21.6994   21.7065 H   0  0  0  0  0  0  0  0  0  0  0  0
  -12.6797  -24.8992   21.0644 H   0  0  0  0  0  0  0  0  0  0  0  0
  -11.4754  -24.4296   20.4347 H   0  0  0  0  0  0  0  0  0  0  0  0
  -13.6322  -23.7329   17.5628 H   0  0  0  0  0  0  0  0  0  0  0  0
  -15.1980  -24.1536   18.1917 H   0  0  0  0  0  0  0  0  0  0  0  0
  -14.5785  -25.2777   16.0408 H   0  0  0  0  0  0  0  0  0  0  0  0
  -15.3386  -26.2030   17.3527 H   0  0  0  0  0  0  0  0  0  0  0  0
  -13.3919  -27.5161   16.9492 H   0  0  0  0  0  0  0  0  0  0  0  0
  -12.4093  -26.0784   16.6181 H   0  0  0  0  0  0  0  0  0  0  0  0
  -11.8428  -26.3880   18.7422 H   0  0  0  0  0  0  0  0  0  0  0  0
  -13.4040  -27.1450   19.2283 H   0  0  0  0  0  0  0  0  0  0  0  0
  -13.1578  -24.0482   26.5598 H   0  0  0  0  0  0  0  0  0  0  0  0
  -14.0801  -22.7375   26.1784 H   0  0  0  0  0  0  0  0  0  0  0  0
  -12.9365  -21.4369   28.3016 H   0  0  0  0  0  0  0  0  0  0  0  0
  -12.6968  -23.2648   28.4345 H   0  0  0  0  0  0  0  0  0  0  0  0
   -8.8419  -24.8955   32.6442 H   0  0  0  0  0  0  0  0  0  0  0  0
  1  2  2  0
  2  3  1  0
  3  4  2  0
  4  5  1  0
  5  6  1  0
  6  7  1  0
  7  8  1  0
  8  9  1  0
  9 10  1  0
 10 11  1  0
 11 12  1  0
 12 13  1  0
 13 14  1  0
 14 15  1  0
 15 16  1  0
 16 17  1  0
 17 18  1  0
 10 19  1  0
 19 20  1  0
  6 21  2  0
 21 22  1  0
 22 23  2  0
 23  1  1  0
 22  4  1  0
 20  7  1  0
 18 14  1  0
  1 24  1  0
  2 25  1  0
  3 26  1  0
  5 27  1  0
  8 28  1  0
  8 29  1  0
  9 30  1  0
  9 31  1  0
 10 32  1  0
 12 33  1  0
 12 34  1  0
 13 35  1  0
 13 36  1  0
 15 37  1  0
 15 38  1  0
 16 39  1  0
 16 40  1  0
 17 41  1  0
 17 42  1  0
 18 43  1  0
 18 44  1  0
 19 45  1  0
 19 46  1  0
 20 47  1  0
 20 48  1  0
 23 49  1  0
M  END
>  <Energy>  (568) 
764.54069574832215

>  <compound_id>  (568) 
9264

>  <target_id>  (568) 
1

>  <reference_id>  (568) 
30

>  <inspiration_ids>  (568) 
[52, 30]

>  <energy_score>  (568) 
718.6717547684957

>  <distance_score>  (568) 
4.619561007330933

>  <path>  (568) 
/opt/xchem-fragalysis-2/maxwin/BulkDock/SCRATCH/511014/C9264-P30/C9264-P30.minimised.mol

>  <scratch_subdir>  (568) 
/opt/xchem-fragalysis-2/maxwin/BulkDock/SCRATCH/511014/C9264-P30

>  <fragmenstein_runtime>  (568) 
18.48716139793396

>  <fragmenstein_outcome>  (568) 
too moved

>  <fragmenstein_mode>  (568) 
expansion

>  <fragmenstein_error>  (568) 


$$$$
C9267-P52
     RDKit          3D

 46 49  0  0  0  0  0  0  0  0999 V2000
  -11.7605  -26.9252   17.8308 O   0  0  0  0  0  0  0  0  0  0  0  0
  -12.6604  -26.2865   18.2458 C   0  0  0  0  0  0  0  0  0  0  0  0
  -12.6549  -25.2731   19.5675 N   0  0  0  0  0  0  0  0  0  0  0  0
  -11.2077  -24.7255   20.7137 C   0  0  0  0  0  0  0  0  0  0  0  0
  -10.5614  -26.3122   22.0408 C   0  0  0  0  0  0  0  0  0  0  0  0
  -11.2051  -25.8511   24.1549 C   0  0  0  0  0  0  0  0  0  0  0  0
  -10.5434  -24.0612   24.6123 C   0  0  0  0  0  0  0  0  0  0  0  0
  -11.2417  -22.7873   23.5855 N   0  0  0  0  0  0  0  0  0  0  0  0
  -12.2284  -22.2761   24.4618 C   0  0  0  0  0  0  0  0  0  0  0  0
  -11.8919  -21.6506   25.5896 N   0  0  0  0  0  0  0  0  0  0  0  0
  -12.1723  -22.4789   26.6485 C   0  0  0  0  0  0  0  0  0  0  0  0
  -11.7250  -22.4552   27.9833 C   0  0  0  0  0  0  0  0  0  0  0  0
  -12.0423  -23.5392   28.8124 C   0  0  0  0  0  0  0  0  0  0  0  0
  -12.7994  -24.6097   28.3210 C   0  0  0  0  0  0  0  0  0  0  0  0
  -13.2993  -24.6218   27.0038 C   0  0  0  0  0  0  0  0  0  0  0  0
  -12.9714  -23.5225   26.1949 C   0  0  0  0  0  0  0  0  0  0  0  0
  -13.2752  -23.1260   24.8840 N   0  0  0  0  0  0  0  0  0  0  0  0
  -11.3479  -22.8518   21.6994 C   0  0  0  0  0  0  0  0  0  0  0  0
  -14.0051  -26.0987   17.6769 N   0  0  0  0  0  0  0  0  0  0  0  0
  -14.5855  -26.5556   16.3776 C   0  0  0  0  0  0  0  0  0  0  0  0
  -16.0737  -26.4074   16.3300 C   0  0  0  0  0  0  0  0  0  0  0  0
  -16.3582  -27.0776   17.6213 C   0  0  0  0  0  0  0  0  0  0  0  0
  -14.9506  -27.1425   18.2046 C   0  0  0  0  0  0  0  0  0  0  0  0
  -13.5230  -24.8095   19.6276 H   0  0  0  0  0  0  0  0  0  0  0  0
  -12.0963  -24.0675   20.3870 H   0  0  0  0  0  0  0  0  0  0  0  0
   -9.6430  -26.1005   21.4808 H   0  0  0  0  0  0  0  0  0  0  0  0
  -10.4049  -27.3674   21.8457 H   0  0  0  0  0  0  0  0  0  0  0  0
  -12.2421  -25.8698   24.6014 H   0  0  0  0  0  0  0  0  0  0  0  0
  -10.7532  -26.3840   25.0280 H   0  0  0  0  0  0  0  0  0  0  0  0
  -10.7231  -23.9528   25.6727 H   0  0  0  0  0  0  0  0  0  0  0  0
   -9.4617  -23.9138   24.5379 H   0  0  0  0  0  0  0  0  0  0  0  0
  -11.1069  -21.6314   28.3283 H   0  0  0  0  0  0  0  0  0  0  0  0
  -11.6845  -23.5454   29.8398 H   0  0  0  0  0  0  0  0  0  0  0  0
  -13.0263  -25.4449   28.9796 H   0  0  0  0  0  0  0  0  0  0  0  0
  -13.9194  -25.4340   26.6431 H   0  0  0  0  0  0  0  0  0  0  0  0
  -13.7777  -23.7038   24.2356 H   0  0  0  0  0  0  0  0  0  0  0  0
  -10.6356  -22.1104   21.2971 H   0  0  0  0  0  0  0  0  0  0  0  0
  -12.3510  -22.4663   21.5395 H   0  0  0  0  0  0  0  0  0  0  0  0
  -14.2054  -27.5485   16.0792 H   0  0  0  0  0  0  0  0  0  0  0  0
  -14.1449  -25.8840   15.6282 H   0  0  0  0  0  0  0  0  0  0  0  0
  -16.3738  -25.3541   16.3511 H   0  0  0  0  0  0  0  0  0  0  0  0
  -16.5316  -26.8959   15.4666 H   0  0  0  0  0  0  0  0  0  0  0  0
  -17.0664  -26.5048   18.2193 H   0  0  0  0  0  0  0  0  0  0  0  0
  -16.7707  -28.0845   17.4974 H   0  0  0  0  0  0  0  0  0  0  0  0
  -14.5093  -28.1451   18.0513 H   0  0  0  0  0  0  0  0  0  0  0  0
  -14.9913  -27.0675   19.2747 H   0  0  0  0  0  0  0  0  0  0  0  0
  1  2  2  0
  2  3  1  0
  3  4  1  0
  4  5  1  0
  5  6  1  0
  6  7  1  0
  7  8  1  0
  8  9  1  0
  9 10  2  0
 10 11  1  0
 11 12  2  0
 12 13  1  0
 13 14  2  0
 14 15  1  0
 15 16  2  0
 16 17  1  0
  8 18  1  0
  2 19  1  0
 19 20  1  0
 20 21  1  0
 21 22  1  0
 22 23  1  0
 18  4  1  0
 23 19  1  0
 17  9  1  0
 16 11  1  0
  3 24  1  0
  4 25  1  0
  5 26  1  0
  5 27  1  0
  6 28  1  0
  6 29  1  0
  7 30  1  0
  7 31  1  0
 12 32  1  0
 13 33  1  0
 14 34  1  0
 15 35  1  0
 17 36  1  0
 18 37  1  0
 18 38  1  0
 20 39  1  0
 20 40  1  0
 21 41  1  0
 21 42  1  0
 22 43  1  0
 22 44  1  0
 23 45  1  0
 23 46  1  0
M  END
>  <Energy>  (569) 
706.34212680704491

>  <compound_id>  (569) 
9267

>  <target_id>  (569) 
1

>  <reference_id>  (569) 
52

>  <inspiration_ids>  (569) 
[52, 30]

>  <energy_score>  (569) 
730.0764716750198

>  <distance_score>  (569) 
5.450039807550354

>  <path>  (569) 
/opt/xchem-fragalysis-2/maxwin/BulkDock/SCRATCH/511014/C9267-P52/C9267-P52.minimised.mol

>  <scratch_subdir>  (569) 
/opt/xchem-fragalysis-2/maxwin/BulkDock/SCRATCH/511014/C9267-P52

>  <fragmenstein_runtime>  (569) 
7.854905366897583

>  <fragmenstein_outcome>  (569) 
too moved

>  <fragmenstein_mode>  (569) 
expansion

>  <fragmenstein_error>  (569) 


$$$$
C9267-P30
     RDKit          3D

 46 49  0  0  0  0  0  0  0  0999 V2000
  -11.9143  -26.7459   18.3682 O   0  0  0  0  0  0  0  0  0  0  0  0
  -12.7374  -25.9791   18.7342 C   0  0  0  0  0  0  0  0  0  0  0  0
  -12.6484  -24.9187   20.0193 N   0  0  0  0  0  0  0  0  0  0  0  0
  -11.3477  -24.6952   21.2842 C   0  0  0  0  0  0  0  0  0  0  0  0
  -10.5128  -26.4992   22.2006 C   0  0  0  0  0  0  0  0  0  0  0  0
  -10.9518  -26.9966   24.2408 C   0  0  0  0  0  0  0  0  0  0  0  0
  -10.8335  -25.4438   25.2621 C   0  0  0  0  0  0  0  0  0  0  0  0
  -10.7325  -23.6540   24.5107 N   0  0  0  0  0  0  0  0  0  0  0  0
  -11.4637  -23.2915   25.6204 C   0  0  0  0  0  0  0  0  0  0  0  0
  -12.4746  -22.5444   25.8735 N   0  0  0  0  0  0  0  0  0  0  0  0
  -12.1225  -22.1659   27.1242 C   0  0  0  0  0  0  0  0  0  0  0  0
  -12.6475  -21.4172   28.1039 C   0  0  0  0  0  0  0  0  0  0  0  0
  -12.3249  -21.0929   29.3616 C   0  0  0  0  0  0  0  0  0  0  0  0
  -11.3417  -21.8312   29.8084 C   0  0  0  0  0  0  0  0  0  0  0  0
  -10.8163  -22.8090   28.9744 C   0  0  0  0  0  0  0  0  0  0  0  0
  -11.1830  -22.8928   27.7029 C   0  0  0  0  0  0  0  0  0  0  0  0
  -10.7872  -23.6823   26.7599 N   0  0  0  0  0  0  0  0  0  0  0  0
  -11.3647  -23.0447   22.7166 C   0  0  0  0  0  0  0  0  0  0  0  0
  -14.0294  -25.6336   18.1410 N   0  0  0  0  0  0  0  0  0  0  0  0
  -14.6482  -26.0546   16.8487 C   0  0  0  0  0  0  0  0  0  0  0  0
  -16.1085  -25.7331   16.7717 C   0  0  0  0  0  0  0  0  0  0  0  0
  -16.4981  -26.3429   18.0662 C   0  0  0  0  0  0  0  0  0  0  0  0
  -15.1204  -26.5318   18.6967 C   0  0  0  0  0  0  0  0  0  0  0  0
  -13.4431  -24.3571   20.0304 H   0  0  0  0  0  0  0  0  0  0  0  0
  -10.6358  -24.3839   20.5508 H   0  0  0  0  0  0  0  0  0  0  0  0
   -9.7981  -27.0025   22.8304 H   0  0  0  0  0  0  0  0  0  0  0  0
  -10.5336  -27.3789   21.3949 H   0  0  0  0  0  0  0  0  0  0  0  0
  -11.7428  -27.6124   24.7397 H   0  0  0  0  0  0  0  0  0  0  0  0
  -10.1257  -27.5721   24.7506 H   0  0  0  0  0  0  0  0  0  0  0  0
  -11.7498  -25.5413   25.8851 H   0  0  0  0  0  0  0  0  0  0  0  0
   -9.9530  -25.5472   25.8687 H   0  0  0  0  0  0  0  0  0  0  0  0
  -13.6412  -21.5985   27.9666 H   0  0  0  0  0  0  0  0  0  0  0  0
  -13.0120  -20.6202   30.0083 H   0  0  0  0  0  0  0  0  0  0  0  0
  -11.2397  -21.7488   30.8738 H   0  0  0  0  0  0  0  0  0  0  0  0
  -10.3350  -23.7195   29.2524 H   0  0  0  0  0  0  0  0  0  0  0  0
   -9.8568  -24.0611   26.7797 H   0  0  0  0  0  0  0  0  0  0  0  0
  -12.3812  -22.6266   22.9009 H   0  0  0  0  0  0  0  0  0  0  0  0
  -10.7156  -22.1858   22.4466 H   0  0  0  0  0  0  0  0  0  0  0  0
  -14.3891  -27.0962   16.5906 H   0  0  0  0  0  0  0  0  0  0  0  0
  -14.1205  -25.4666   16.0858 H   0  0  0  0  0  0  0  0  0  0  0  0
  -16.2833  -24.6521   16.7697 H   0  0  0  0  0  0  0  0  0  0  0  0
  -16.6058  -26.1788   15.9067 H   0  0  0  0  0  0  0  0  0  0  0  0
  -17.1743  -25.6973   18.6306 H   0  0  0  0  0  0  0  0  0  0  0  0
  -16.9978  -27.3101   17.9442 H   0  0  0  0  0  0  0  0  0  0  0  0
  -14.7959  -27.5850   18.5927 H   0  0  0  0  0  0  0  0  0  0  0  0
  -15.1578  -26.4344   19.7757 H   0  0  0  0  0  0  0  0  0  0  0  0
  1  2  2  0
  2  3  1  0
  3  4  1  0
  4  5  1  0
  5  6  1  0
  6  7  1  0
  7  8  1  0
  8  9  1  0
  9 10  2  0
 10 11  1  0
 11 12  2  0
 12 13  1  0
 13 14  2  0
 14 15  1  0
 15 16  2  0
 16 17  1  0
  8 18  1  0
  2 19  1  0
 19 20  1  0
 20 21  1  0
 21 22  1  0
 22 23  1  0
 18  4  1  0
 23 19  1  0
 17  9  1  0
 16 11  1  0
  3 24  1  0
  4 25  1  0
  5 26  1  0
  5 27  1  0
  6 28  1  0
  6 29  1  0
  7 30  1  0
  7 31  1  0
 12 32  1  0
 13 33  1  0
 14 34  1  0
 15 35  1  0
 17 36  1  0
 18 37  1  0
 18 38  1  0
 20 39  1  0
 20 40  1  0
 21 41  1  0
 21 42  1  0
 22 43  1  0
 22 44  1  0
 23 45  1  0
 23 46  1  0
M  END
>  <Energy>  (570) 
731.56991612385605

>  <compound_id>  (570) 
9267

>  <target_id>  (570) 
1

>  <reference_id>  (570) 
30

>  <inspiration_ids>  (570) 
[52, 30]

>  <energy_score>  (570) 
755.3042609918458

>  <distance_score>  (570) 
5.113292625363999

>  <path>  (570) 
/opt/xchem-fragalysis-2/maxwin/BulkDock/SCRATCH/511014/C9267-P30/C9267-P30.minimised.mol

>  <scratch_subdir>  (570) 
/opt/xchem-fragalysis-2/maxwin/BulkDock/SCRATCH/511014/C9267-P30

>  <fragmenstein_runtime>  (570) 
9.796808958053589

>  <fragmenstein_outcome>  (570) 
too moved

>  <fragmenstein_mode>  (570) 
expansion

>  <fragmenstein_error>  (570) 


$$$$
C9270-P52
     RDKit          3D

 44 47  0  0  0  0  0  0  0  0999 V2000
  -13.6391  -25.1998   21.0171 O   0  0  0  0  0  0  0  0  0  0  0  0
  -13.0503  -24.7070   20.1042 C   0  0  0  0  0  0  0  0  0  0  0  0
  -12.2121  -22.9919   20.6945 C   0  0  0  0  0  0  0  0  0  0  0  0
  -12.8413  -22.6078   22.2650 C   0  0  0  0  0  0  0  0  0  0  0  0
  -12.6993  -22.4406   23.7491 C   0  0  0  0  0  0  0  0  0  0  0  0
  -11.3315  -22.5691   24.0286 N   0  0  0  0  0  0  0  0  0  0  0  0
  -11.1406  -22.9083   25.3651 C   0  0  0  0  0  0  0  0  0  0  0  0
  -10.7810  -24.0594   25.9012 N   0  0  0  0  0  0  0  0  0  0  0  0
  -10.9163  -23.9224   27.2760 C   0  0  0  0  0  0  0  0  0  0  0  0
  -10.6064  -24.8142   28.3187 C   0  0  0  0  0  0  0  0  0  0  0  0
  -10.7740  -24.4095   29.6511 C   0  0  0  0  0  0  0  0  0  0  0  0
  -11.2591  -23.1358   29.9431 C   0  0  0  0  0  0  0  0  0  0  0  0
  -11.5923  -22.2372   28.9203 C   0  0  0  0  0  0  0  0  0  0  0  0
  -11.4234  -22.6779   27.6028 C   0  0  0  0  0  0  0  0  0  0  0  0
  -11.6627  -22.1073   26.3798 N   0  0  0  0  0  0  0  0  0  0  0  0
  -10.4940  -21.8347   22.9719 C   0  0  0  0  0  0  0  0  0  0  0  0
  -10.8950  -22.0742   21.2559 C   0  0  0  0  0  0  0  0  0  0  0  0
  -13.0284  -25.3983   18.6284 N   0  0  0  0  0  0  0  0  0  0  0  0
  -14.1935  -24.8867   17.7446 C   0  0  0  0  0  0  0  0  0  0  0  0
  -14.3986  -25.6221   16.4046 C   0  0  0  0  0  0  0  0  0  0  0  0
  -13.5520  -26.8067   16.6377 C   0  0  0  0  0  0  0  0  0  0  0  0
  -13.5615  -26.7101   18.1361 C   0  0  0  0  0  0  0  0  0  0  0  0
  -12.5392  -22.4184   19.8398 H   0  0  0  0  0  0  0  0  0  0  0  0
  -12.6686  -21.5571   22.2322 H   0  0  0  0  0  0  0  0  0  0  0  0
  -13.6971  -23.2128   22.3577 H   0  0  0  0  0  0  0  0  0  0  0  0
  -13.3448  -23.1434   24.3051 H   0  0  0  0  0  0  0  0  0  0  0  0
  -13.0684  -21.4632   24.0691 H   0  0  0  0  0  0  0  0  0  0  0  0
  -10.2121  -25.7913   28.0737 H   0  0  0  0  0  0  0  0  0  0  0  0
  -10.4985  -25.0839   30.4578 H   0  0  0  0  0  0  0  0  0  0  0  0
  -11.3630  -22.8243   30.9815 H   0  0  0  0  0  0  0  0  0  0  0  0
  -11.9275  -21.2317   29.1481 H   0  0  0  0  0  0  0  0  0  0  0  0
  -12.0576  -21.1971   26.2040 H   0  0  0  0  0  0  0  0  0  0  0  0
  -10.6393  -20.7588   23.1265 H   0  0  0  0  0  0  0  0  0  0  0  0
   -9.4269  -22.0311   23.1010 H   0  0  0  0  0  0  0  0  0  0  0  0
   -9.9792  -22.1680   20.6803 H   0  0  0  0  0  0  0  0  0  0  0  0
  -11.1564  -21.0453   20.9795 H   0  0  0  0  0  0  0  0  0  0  0  0
  -13.8164  -23.9385   17.4284 H   0  0  0  0  0  0  0  0  0  0  0  0
  -15.1783  -24.6664   18.1310 H   0  0  0  0  0  0  0  0  0  0  0  0
  -14.1098  -25.0458   15.5221 H   0  0  0  0  0  0  0  0  0  0  0  0
  -15.4543  -25.8941   16.2860 H   0  0  0  0  0  0  0  0  0  0  0  0
  -12.5431  -26.6803   16.2317 H   0  0  0  0  0  0  0  0  0  0  0  0
  -13.9834  -27.7360   16.2581 H   0  0  0  0  0  0  0  0  0  0  0  0
  -12.8649  -27.4652   18.5174 H   0  0  0  0  0  0  0  0  0  0  0  0
  -14.5224  -26.9764   18.6029 H   0  0  0  0  0  0  0  0  0  0  0  0
  1  2  2  0
  2  3  1  0
  3  4  1  0
  4  5  1  0
  5  6  1  0
  6  7  1  0
  7  8  2  0
  8  9  1  0
  9 10  2  0
 10 11  1  0
 11 12  2  0
 12 13  1  0
 13 14  2  0
 14 15  1  0
  6 16  1  0
 16 17  1  0
  2 18  1  0
 18 19  1  0
 19 20  1  0
 20 21  1  0
 21 22  1  0
 17  3  1  0
 22 18  1  0
 15  7  1  0
 14  9  1  0
  3 23  1  0
  4 24  1  0
  4 25  1  0
  5 26  1  0
  5 27  1  0
 10 28  1  0
 11 29  1  0
 12 30  1  0
 13 31  1  0
 15 32  1  0
 16 33  1  0
 16 34  1  0
 17 35  1  0
 17 36  1  0
 19 37  1  0
 19 38  1  0
 20 39  1  0
 20 40  1  0
 21 41  1  0
 21 42  1  0
 22 43  1  0
 22 44  1  0
M  END
>  <Energy>  (571) 
311.15973801219934

>  <compound_id>  (571) 
9270

>  <target_id>  (571) 
1

>  <reference_id>  (571) 
52

>  <inspiration_ids>  (571) 
[52, 30]

>  <energy_score>  (571) 
303.30720548927945

>  <distance_score>  (571) 
5.450171771011114

>  <path>  (571) 
/opt/xchem-fragalysis-2/maxwin/BulkDock/SCRATCH/511014/C9270-P52/C9270-P52.minimised.mol

>  <scratch_subdir>  (571) 
/opt/xchem-fragalysis-2/maxwin/BulkDock/SCRATCH/511014/C9270-P52

>  <fragmenstein_runtime>  (571) 
11.393815040588379

>  <fragmenstein_outcome>  (571) 
too moved

>  <fragmenstein_mode>  (571) 
expansion

>  <fragmenstein_error>  (571) 


$$$$
C9270-P30
     RDKit          3D

 44 47  0  0  0  0  0  0  0  0999 V2000
  -14.0247  -26.1794   20.1839 O   0  0  0  0  0  0  0  0  0  0  0  0
  -13.5072  -25.4353   19.4113 C   0  0  0  0  0  0  0  0  0  0  0  0
  -12.6712  -23.9567   20.2404 C   0  0  0  0  0  0  0  0  0  0  0  0
  -12.7506  -22.5797   20.9033 C   0  0  0  0  0  0  0  0  0  0  0  0
  -13.1570  -22.4058   22.5052 C   0  0  0  0  0  0  0  0  0  0  0  0
  -12.0252  -22.1287   23.2282 N   0  0  0  0  0  0  0  0  0  0  0  0
  -12.0545  -22.6596   24.4700 C   0  0  0  0  0  0  0  0  0  0  0  0
  -11.1037  -23.3648   25.0469 N   0  0  0  0  0  0  0  0  0  0  0  0
  -11.4123  -23.1667   26.3228 C   0  0  0  0  0  0  0  0  0  0  0  0
  -11.3424  -21.9471   27.1180 C   0  0  0  0  0  0  0  0  0  0  0  0
  -11.3692  -21.9095   28.4259 C   0  0  0  0  0  0  0  0  0  0  0  0
  -12.1754  -22.8896   28.6640 C   0  0  0  0  0  0  0  0  0  0  0  0
  -12.8208  -23.7518   27.6427 C   0  0  0  0  0  0  0  0  0  0  0  0
  -12.6606  -23.6767   26.3301 C   0  0  0  0  0  0  0  0  0  0  0  0
  -13.1704  -22.8860   25.2913 N   0  0  0  0  0  0  0  0  0  0  0  0
  -10.9601  -22.3064   22.2642 C   0  0  0  0  0  0  0  0  0  0  0  0
  -11.4116  -23.7746   20.9863 C   0  0  0  0  0  0  0  0  0  0  0  0
  -13.3525  -25.5636   17.9887 N   0  0  0  0  0  0  0  0  0  0  0  0
  -14.5221  -24.9392   17.2725 C   0  0  0  0  0  0  0  0  0  0  0  0
  -14.5545  -25.1014   15.7580 C   0  0  0  0  0  0  0  0  0  0  0  0
  -13.6690  -26.2800   15.6195 C   0  0  0  0  0  0  0  0  0  0  0  0
  -13.6823  -26.6935   17.0657 C   0  0  0  0  0  0  0  0  0  0  0  0
  -12.7516  -23.5261   19.2663 H   0  0  0  0  0  0  0  0  0  0  0  0
  -11.9369  -21.8736   20.6544 H   0  0  0  0  0  0  0  0  0  0  0  0
  -13.0411  -22.0194   20.0528 H   0  0  0  0  0  0  0  0  0  0  0  0
  -13.7207  -23.2166   22.9468 H   0  0  0  0  0  0  0  0  0  0  0  0
  -13.7502  -21.6153   22.9077 H   0  0  0  0  0  0  0  0  0  0  0  0
  -11.3083  -21.0544   26.5530 H   0  0  0  0  0  0  0  0  0  0  0  0
  -11.1935  -21.1366   29.1386 H   0  0  0  0  0  0  0  0  0  0  0  0
  -12.5396  -22.8440   29.6722 H   0  0  0  0  0  0  0  0  0  0  0  0
  -13.4228  -24.5426   27.9951 H   0  0  0  0  0  0  0  0  0  0  0  0
  -13.9498  -22.2445   25.3650 H   0  0  0  0  0  0  0  0  0  0  0  0
  -10.7548  -21.3865   21.7007 H   0  0  0  0  0  0  0  0  0  0  0  0
  -10.0162  -22.2931   22.8438 H   0  0  0  0  0  0  0  0  0  0  0  0
  -11.3845  -24.7938   21.2323 H   0  0  0  0  0  0  0  0  0  0  0  0
  -10.4692  -23.9990   20.4609 H   0  0  0  0  0  0  0  0  0  0  0  0
  -14.4482  -23.8915   17.4889 H   0  0  0  0  0  0  0  0  0  0  0  0
  -15.4720  -25.2621   17.7288 H   0  0  0  0  0  0  0  0  0  0  0  0
  -14.1890  -24.2316   15.2092 H   0  0  0  0  0  0  0  0  0  0  0  0
  -15.5767  -25.2973   15.4162 H   0  0  0  0  0  0  0  0  0  0  0  0
  -12.6628  -25.9947   15.2951 H   0  0  0  0  0  0  0  0  0  0  0  0
  -14.0586  -27.0483   14.9472 H   0  0  0  0  0  0  0  0  0  0  0  0
  -14.5966  -27.2239   17.3850 H   0  0  0  0  0  0  0  0  0  0  0  0
  -12.8837  -27.4295   17.2304 H   0  0  0  0  0  0  0  0  0  0  0  0
  1  2  2  0
  2  3  1  0
  3  4  1  0
  4  5  1  0
  5  6  1  0
  6  7  1  0
  7  8  2  0
  8  9  1  0
  9 10  2  0
 10 11  1  0
 11 12  2  0
 12 13  1  0
 13 14  2  0
 14 15  1  0
  6 16  1  0
 16 17  1  0
  2 18  1  0
 18 19  1  0
 19 20  1  0
 20 21  1  0
 21 22  1  0
 17  3  1  0
 22 18  1  0
 15  7  1  0
 14  9  1  0
  3 23  1  0
  4 24  1  0
  4 25  1  0
  5 26  1  0
  5 27  1  0
 10 28  1  0
 11 29  1  0
 12 30  1  0
 13 31  1  0
 15 32  1  0
 16 33  1  0
 16 34  1  0
 17 35  1  0
 17 36  1  0
 19 37  1  0
 19 38  1  0
 20 39  1  0
 20 40  1  0
 21 41  1  0
 21 42  1  0
 22 43  1  0
 22 44  1  0
M  END
>  <Energy>  (572) 
490.26860229651084

>  <compound_id>  (572) 
9270

>  <target_id>  (572) 
1

>  <reference_id>  (572) 
30

>  <inspiration_ids>  (572) 
[52, 30]

>  <energy_score>  (572) 
482.416069773589

>  <distance_score>  (572) 
5.626068862108147

>  <path>  (572) 
/opt/xchem-fragalysis-2/maxwin/BulkDock/SCRATCH/511014/C9270-P30/C9270-P30.minimised.mol

>  <scratch_subdir>  (572) 
/opt/xchem-fragalysis-2/maxwin/BulkDock/SCRATCH/511014/C9270-P30

>  <fragmenstein_runtime>  (572) 
11.887575626373291

>  <fragmenstein_outcome>  (572) 
too moved

>  <fragmenstein_mode>  (572) 
expansion

>  <fragmenstein_error>  (572) 


$$$$
C9272-P52
     RDKit          3D

 49 53  0  0  0  0  0  0  0  0999 V2000
  -12.6398  -22.6489   25.1236 C   0  0  0  0  0  0  0  0  0  0  0  0
  -11.5600  -23.3092   25.6331 C   0  0  0  0  0  0  0  0  0  0  0  0
  -10.4130  -23.2344   24.8714 C   0  0  0  0  0  0  0  0  0  0  0  0
  -10.2966  -22.3858   23.6798 C   0  0  0  0  0  0  0  0  0  0  0  0
  -11.3927  -21.7888   23.1238 C   0  0  0  0  0  0  0  0  0  0  0  0
  -12.5572  -21.9038   23.9182 C   0  0  0  0  0  0  0  0  0  0  0  0
  -11.1525  -21.3923   21.8037 N   0  0  0  0  0  0  0  0  0  0  0  0
   -9.9448  -21.8534   21.3795 C   0  0  0  0  0  0  0  0  0  0  0  0
   -9.7831  -22.8011   20.0426 N   0  0  0  0  0  0  0  0  0  0  0  0
   -9.3705  -21.9894   18.1864 C   0  0  0  0  0  0  0  0  0  0  0  0
   -9.6634  -23.2296   16.4506 C   0  0  0  0  0  0  0  0  0  0  0  0
  -10.6893  -25.1043   16.4835 C   0  0  0  0  0  0  0  0  0  0  0  0
  -10.9533  -26.0320   18.3026 C   0  0  0  0  0  0  0  0  0  0  0  0
  -11.1585  -27.5076   17.8594 N   0  0  0  0  0  0  0  0  0  0  0  0
  -10.4914  -27.9411   16.6059 C   0  0  0  0  0  0  0  0  0  0  0  0
  -10.9560  -29.3789   16.4701 C   0  0  0  0  0  0  0  0  0  0  0  0
  -12.3907  -29.3322   16.9688 C   0  0  0  0  0  0  0  0  0  0  0  0
  -12.5446  -27.9545   17.6080 C   0  0  0  0  0  0  0  0  0  0  0  0
  -10.7109  -24.7246   20.0833 C   0  0  0  0  0  0  0  0  0  0  0  0
   -9.1376  -21.9954   22.8537 N   0  0  0  0  0  0  0  0  0  0  0  0
   -7.6696  -22.9271   23.5294 C   0  0  0  0  0  0  0  0  0  0  0  0
   -6.1784  -22.7055   23.9844 C   0  0  0  0  0  0  0  0  0  0  0  0
   -6.0772  -23.6949   23.0116 C   0  0  0  0  0  0  0  0  0  0  0  0
  -13.6097  -22.7472   25.5868 H   0  0  0  0  0  0  0  0  0  0  0  0
  -11.6139  -23.8935   26.5419 H   0  0  0  0  0  0  0  0  0  0  0  0
   -9.5408  -23.7618   25.1884 H   0  0  0  0  0  0  0  0  0  0  0  0
  -13.4887  -21.4928   23.5998 H   0  0  0  0  0  0  0  0  0  0  0  0
   -8.4002  -21.4360   18.3084 H   0  0  0  0  0  0  0  0  0  0  0  0
   -9.3190  -20.8476   17.9071 H   0  0  0  0  0  0  0  0  0  0  0  0
   -9.9576  -22.5740   15.6087 H   0  0  0  0  0  0  0  0  0  0  0  0
   -8.7457  -23.5582   15.8998 H   0  0  0  0  0  0  0  0  0  0  0  0
  -11.3572  -25.4457   15.6643 H   0  0  0  0  0  0  0  0  0  0  0  0
   -9.8665  -25.7247   16.0071 H   0  0  0  0  0  0  0  0  0  0  0  0
  -12.0951  -26.0691   18.4024 H   0  0  0  0  0  0  0  0  0  0  0  0
   -9.4003  -27.8698   16.6322 H   0  0  0  0  0  0  0  0  0  0  0  0
  -10.8648  -27.4360   15.7116 H   0  0  0  0  0  0  0  0  0  0  0  0
  -10.8900  -29.7420   15.4399 H   0  0  0  0  0  0  0  0  0  0  0  0
  -10.3592  -30.0468   17.1022 H   0  0  0  0  0  0  0  0  0  0  0  0
  -12.5626  -30.1317   17.6980 H   0  0  0  0  0  0  0  0  0  0  0  0
  -13.1047  -29.4626   16.1488 H   0  0  0  0  0  0  0  0  0  0  0  0
  -13.1340  -28.0201   18.5226 H   0  0  0  0  0  0  0  0  0  0  0  0
  -13.0612  -27.2837   16.9081 H   0  0  0  0  0  0  0  0  0  0  0  0
  -10.2710  -25.2515   20.8961 H   0  0  0  0  0  0  0  0  0  0  0  0
  -11.8015  -24.4884   20.2609 H   0  0  0  0  0  0  0  0  0  0  0  0
   -8.1293  -23.5661   22.8205 H   0  0  0  0  0  0  0  0  0  0  0  0
   -5.4601  -21.9548   23.6196 H   0  0  0  0  0  0  0  0  0  0  0  0
   -5.9172  -22.9848   24.9998 H   0  0  0  0  0  0  0  0  0  0  0  0
   -5.5143  -23.4746   22.1075 H   0  0  0  0  0  0  0  0  0  0  0  0
   -5.6598  -24.6208   23.3900 H   0  0  0  0  0  0  0  0  0  0  0  0
  1  2  2  0
  2  3  1  0
  3  4  2  0
  4  5  1  0
  5  6  2  0
  5  7  1  0
  7  8  2  0
  8  9  1  0
  9 10  1  0
 10 11  1  0
 11 12  1  0
 12 13  1  0
 13 14  1  0
 14 15  1  0
 15 16  1  0
 16 17  1  0
 17 18  1  0
 13 19  1  0
  8 20  1  0
 20 21  1  0
 21 22  1  0
 22 23  1  0
  6  1  1  0
 19  9  1  0
 23 21  1  0
 20  4  1  0
 18 14  1  0
  1 24  1  0
  2 25  1  0
  3 26  1  0
  6 27  1  0
 10 28  1  0
 10 29  1  0
 11 30  1  0
 11 31  1  0
 12 32  1  0
 12 33  1  0
 13 34  1  0
 15 35  1  0
 15 36  1  0
 16 37  1  0
 16 38  1  0
 17 39  1  0
 17 40  1  0
 18 41  1  0
 18 42  1  0
 19 43  1  0
 19 44  1  0
 21 45  1  0
 22 46  1  0
 22 47  1  0
 23 48  1  0
 23 49  1  0
M  END
>  <Energy>  (573) 
1032.0938137244673

>  <compound_id>  (573) 
9272

>  <target_id>  (573) 
1

>  <reference_id>  (573) 
52

>  <inspiration_ids>  (573) 
[52, 30]

>  <energy_score>  (573) 
897.8692329838855

>  <distance_score>  (573) 
7.468377448592195

>  <path>  (573) 
/opt/xchem-fragalysis-2/maxwin/BulkDock/SCRATCH/511014/C9272-P52/C9272-P52.minimised.mol

>  <scratch_subdir>  (573) 
/opt/xchem-fragalysis-2/maxwin/BulkDock/SCRATCH/511014/C9272-P52

>  <fragmenstein_runtime>  (573) 
24.31644082069397

>  <fragmenstein_outcome>  (573) 
too moved

>  <fragmenstein_mode>  (573) 
expansion

>  <fragmenstein_error>  (573) 


$$$$
C9272-P30
     RDKit          3D

 49 53  0  0  0  0  0  0  0  0999 V2000
  -12.3748  -23.8228   26.7542 C   0  0  0  0  0  0  0  0  0  0  0  0
  -12.7110  -25.0754   26.3027 C   0  0  0  0  0  0  0  0  0  0  0  0
  -13.6402  -25.1300   25.2937 C   0  0  0  0  0  0  0  0  0  0  0  0
  -13.7676  -23.9463   24.5216 C   0  0  0  0  0  0  0  0  0  0  0  0
  -13.9940  -22.7578   25.0504 C   0  0  0  0  0  0  0  0  0  0  0  0
  -13.0673  -22.7076   26.2397 C   0  0  0  0  0  0  0  0  0  0  0  0
  -14.3540  -22.1310   23.6522 N   0  0  0  0  0  0  0  0  0  0  0  0
  -13.4963  -22.8328   22.7649 C   0  0  0  0  0  0  0  0  0  0  0  0
  -12.8233  -22.9973   21.3283 N   0  0  0  0  0  0  0  0  0  0  0  0
  -12.0402  -22.0997   20.6022 C   0  0  0  0  0  0  0  0  0  0  0  0
  -12.7527  -22.3461   19.1623 C   0  0  0  0  0  0  0  0  0  0  0  0
  -13.6152  -23.8756   18.2808 C   0  0  0  0  0  0  0  0  0  0  0  0
  -13.4442  -25.1076   19.1230 C   0  0  0  0  0  0  0  0  0  0  0  0
  -13.2129  -26.1025   18.0328 N   0  0  0  0  0  0  0  0  0  0  0  0
  -14.3668  -26.4942   17.2187 C   0  0  0  0  0  0  0  0  0  0  0  0
  -13.6942  -27.2500   16.0869 C   0  0  0  0  0  0  0  0  0  0  0  0
  -12.5464  -27.9731   16.7695 C   0  0  0  0  0  0  0  0  0  0  0  0
  -12.3470  -27.2421   18.0998 C   0  0  0  0  0  0  0  0  0  0  0  0
  -12.5753  -24.4935   20.4276 C   0  0  0  0  0  0  0  0  0  0  0  0
  -12.6821  -23.0080   23.7929 N   0  0  0  0  0  0  0  0  0  0  0  0
  -12.0262  -21.7344   23.5606 C   0  0  0  0  0  0  0  0  0  0  0  0
  -10.6588  -21.4338   23.3394 C   0  0  0  0  0  0  0  0  0  0  0  0
  -11.6076  -20.7121   24.4041 C   0  0  0  0  0  0  0  0  0  0  0  0
  -11.6222  -23.6548   27.5195 H   0  0  0  0  0  0  0  0  0  0  0  0
  -12.2853  -25.9824   26.7089 H   0  0  0  0  0  0  0  0  0  0  0  0
  -14.0982  -26.0511   24.9554 H   0  0  0  0  0  0  0  0  0  0  0  0
  -12.6867  -21.8054   26.7054 H   0  0  0  0  0  0  0  0  0  0  0  0
  -10.9761  -22.3139   20.7329 H   0  0  0  0  0  0  0  0  0  0  0  0
  -11.9648  -21.0611   20.9049 H   0  0  0  0  0  0  0  0  0  0  0  0
  -13.5862  -21.8147   19.3060 H   0  0  0  0  0  0  0  0  0  0  0  0
  -12.7928  -21.4747   18.5397 H   0  0  0  0  0  0  0  0  0  0  0  0
  -14.7035  -23.8429   18.1307 H   0  0  0  0  0  0  0  0  0  0  0  0
  -13.3913  -23.9738   17.2319 H   0  0  0  0  0  0  0  0  0  0  0  0
  -14.3449  -25.5197   19.5531 H   0  0  0  0  0  0  0  0  0  0  0  0
  -15.0391  -27.1478   17.7876 H   0  0  0  0  0  0  0  0  0  0  0  0
  -14.9489  -25.6593   16.8192 H   0  0  0  0  0  0  0  0  0  0  0  0
  -14.3764  -27.9394   15.5810 H   0  0  0  0  0  0  0  0  0  0  0  0
  -13.3013  -26.5488   15.3401 H   0  0  0  0  0  0  0  0  0  0  0  0
  -11.6447  -27.9494   16.1485 H   0  0  0  0  0  0  0  0  0  0  0  0
  -12.8051  -29.0225   16.9504 H   0  0  0  0  0  0  0  0  0  0  0  0
  -11.3169  -26.9150   18.1564 H   0  0  0  0  0  0  0  0  0  0  0  0
  -12.6039  -27.9164   18.9193 H   0  0  0  0  0  0  0  0  0  0  0  0
  -11.5058  -24.6027   20.4295 H   0  0  0  0  0  0  0  0  0  0  0  0
  -12.9358  -25.2146   21.0980 H   0  0  0  0  0  0  0  0  0  0  0  0
  -12.4834  -21.1707   22.7546 H   0  0  0  0  0  0  0  0  0  0  0  0
   -9.9870  -22.2593   23.4991 H   0  0  0  0  0  0  0  0  0  0  0  0
  -10.4223  -20.9964   22.3960 H   0  0  0  0  0  0  0  0  0  0  0  0
  -12.3509  -19.9664   24.2572 H   0  0  0  0  0  0  0  0  0  0  0  0
  -11.7077  -20.9069   25.4492 H   0  0  0  0  0  0  0  0  0  0  0  0
  1  2  2  0
  2  3  1  0
  3  4  2  0
  4  5  1  0
  5  6  2  0
  5  7  1  0
  7  8  2  0
  8  9  1  0
  9 10  1  0
 10 11  1  0
 11 12  1  0
 12 13  1  0
 13 14  1  0
 14 15  1  0
 15 16  1  0
 16 17  1  0
 17 18  1  0
 13 19  1  0
  8 20  1  0
 20 21  1  0
 21 22  1  0
 22 23  1  0
  6  1  1  0
 19  9  1  0
 23 21  1  0
 20  4  1  0
 18 14  1  0
  1 24  1  0
  2 25  1  0
  3 26  1  0
  6 27  1  0
 10 28  1  0
 10 29  1  0
 11 30  1  0
 11 31  1  0
 12 32  1  0
 12 33  1  0
 13 34  1  0
 15 35  1  0
 15 36  1  0
 16 37  1  0
 16 38  1  0
 17 39  1  0
 17 40  1  0
 18 41  1  0
 18 42  1  0
 19 43  1  0
 19 44  1  0
 21 45  1  0
 22 46  1  0
 22 47  1  0
 23 48  1  0
 23 49  1  0
M  END
>  <Energy>  (574) 
629.6936069082418

>  <compound_id>  (574) 
9272

>  <target_id>  (574) 
1

>  <reference_id>  (574) 
30

>  <inspiration_ids>  (574) 
[52, 30]

>  <energy_score>  (574) 
495.46902616766283

>  <distance_score>  (574) 
6.4736746852132585

>  <path>  (574) 
/opt/xchem-fragalysis-2/maxwin/BulkDock/SCRATCH/511014/C9272-P30/C9272-P30.minimised.mol

>  <scratch_subdir>  (574) 
/opt/xchem-fragalysis-2/maxwin/BulkDock/SCRATCH/511014/C9272-P30

>  <fragmenstein_runtime>  (574) 
26.912251234054565

>  <fragmenstein_outcome>  (574) 
too moved

>  <fragmenstein_mode>  (574) 
expansion

>  <fragmenstein_error>  (574) 


$$$$
C6221-P52
     RDKit          3D

 49 52  0  0  0  0  0  0  0  0999 V2000
  -14.0751  -25.4693   24.3178 O   0  0  0  0  0  0  0  0  0  0  0  0
  -13.7734  -24.3549   23.9144 C   0  0  0  0  0  0  0  0  0  0  0  0
  -13.5002  -23.8219   22.3111 N   0  0  0  0  0  0  0  0  0  0  0  0
  -13.4375  -24.8126   20.6792 C   0  0  0  0  0  0  0  0  0  0  0  0
  -13.5834  -24.6701   18.8692 C   0  0  0  0  0  0  0  0  0  0  0  0
  -13.3743  -26.0695   18.1392 C   0  0  0  0  0  0  0  0  0  0  0  0
  -13.7046  -26.1170   16.7192 N   0  0  0  0  0  0  0  0  0  0  0  0
  -14.9445  -25.8701   16.1942 C   0  0  0  0  0  0  0  0  0  0  0  0
  -14.9334  -25.8744   14.8818 N   0  0  0  0  0  0  0  0  0  0  0  0
  -13.6361  -26.1538   14.5337 C   0  0  0  0  0  0  0  0  0  0  0  0
  -13.0456  -26.2000   13.2622 C   0  0  0  0  0  0  0  0  0  0  0  0
  -11.6741  -26.4658   13.1632 C   0  0  0  0  0  0  0  0  0  0  0  0
  -10.9136  -26.7230   14.3042 C   0  0  0  0  0  0  0  0  0  0  0  0
  -11.4905  -26.7105   15.5796 C   0  0  0  0  0  0  0  0  0  0  0  0
  -12.8549  -26.3926   15.6653 C   0  0  0  0  0  0  0  0  0  0  0  0
  -13.5196  -23.4462   25.0692 C   0  0  0  0  0  0  0  0  0  0  0  0
  -12.8961  -22.2851   24.6959 C   0  0  0  0  0  0  0  0  0  0  0  0
  -12.0357  -21.6592   25.5752 C   0  0  0  0  0  0  0  0  0  0  0  0
  -11.7531  -22.1634   26.8184 C   0  0  0  0  0  0  0  0  0  0  0  0
  -12.2718  -23.3094   27.2207 N   0  0  0  0  0  0  0  0  0  0  0  0
  -13.1213  -23.9727   26.3754 C   0  0  0  0  0  0  0  0  0  0  0  0
  -13.5014  -25.2334   26.8945 N   0  0  0  0  0  0  0  0  0  0  0  0
  -13.7248  -25.2253   28.3622 C   0  0  0  0  0  0  0  0  0  0  0  0
  -12.6396  -26.0735   29.0172 C   0  0  0  0  0  0  0  0  0  0  0  0
  -11.5825  -26.1984   27.9521 C   0  0  0  0  0  0  0  0  0  0  0  0
  -12.3939  -26.1746   26.6603 C   0  0  0  0  0  0  0  0  0  0  0  0
  -13.3483  -22.8248   22.3049 H   0  0  0  0  0  0  0  0  0  0  0  0
  -13.8248  -25.7653   20.9659 H   0  0  0  0  0  0  0  0  0  0  0  0
  -12.3857  -24.7721   20.4192 H   0  0  0  0  0  0  0  0  0  0  0  0
  -13.0578  -23.7837   18.5795 H   0  0  0  0  0  0  0  0  0  0  0  0
  -14.5386  -24.3416   18.4517 H   0  0  0  0  0  0  0  0  0  0  0  0
  -12.3670  -26.4711   18.2440 H   0  0  0  0  0  0  0  0  0  0  0  0
  -14.0366  -26.8113   18.6017 H   0  0  0  0  0  0  0  0  0  0  0  0
  -15.8112  -25.6679   16.8095 H   0  0  0  0  0  0  0  0  0  0  0  0
  -13.6446  -26.0050   12.3802 H   0  0  0  0  0  0  0  0  0  0  0  0
  -11.1998  -26.4782   12.1851 H   0  0  0  0  0  0  0  0  0  0  0  0
   -9.8484  -26.9245   14.2039 H   0  0  0  0  0  0  0  0  0  0  0  0
  -10.8802  -26.8777   16.4606 H   0  0  0  0  0  0  0  0  0  0  0  0
  -13.0655  -21.7752   23.7650 H   0  0  0  0  0  0  0  0  0  0  0  0
  -11.7517  -20.6497   25.2999 H   0  0  0  0  0  0  0  0  0  0  0  0
  -11.1399  -21.6281   27.5340 H   0  0  0  0  0  0  0  0  0  0  0  0
  -14.6925  -25.6959   28.5638 H   0  0  0  0  0  0  0  0  0  0  0  0
  -13.7391  -24.2295   28.8134 H   0  0  0  0  0  0  0  0  0  0  0  0
  -13.0413  -27.0614   29.2724 H   0  0  0  0  0  0  0  0  0  0  0  0
  -12.2506  -25.6253   29.9356 H   0  0  0  0  0  0  0  0  0  0  0  0
  -11.0140  -27.1200   28.0640 H   0  0  0  0  0  0  0  0  0  0  0  0
  -10.8792  -25.3602   27.9964 H   0  0  0  0  0  0  0  0  0  0  0  0
  -11.7699  -25.9273   25.7934 H   0  0  0  0  0  0  0  0  0  0  0  0
  -12.8391  -27.1607   26.4815 H   0  0  0  0  0  0  0  0  0  0  0  0
  1  2  2  0
  2  3  1  0
  3  4  1  0
  4  5  1  0
  5  6  1  0
  6  7  1  0
  7  8  1  0
  8  9  2  0
  9 10  1  0
 10 11  2  0
 11 12  1  0
 12 13  2  0
 13 14  1  0
 14 15  2  0
  2 16  1  0
 16 17  2  0
 17 18  1  0
 18 19  2  0
 19 20  1  0
 20 21  2  0
 21 22  1  0
 22 23  1  0
 23 24  1  0
 24 25  1  0
 25 26  1  0
 15  7  1  0
 21 16  1  0
 26 22  1  0
 15 10  1  0
  3 27  1  0
  4 28  1  0
  4 29  1  0
  5 30  1  0
  5 31  1  0
  6 32  1  0
  6 33  1  0
  8 34  1  0
 11 35  1  0
 12 36  1  0
 13 37  1  0
 14 38  1  0
 17 39  1  0
 18 40  1  0
 19 41  1  0
 23 42  1  0
 23 43  1  0
 24 44  1  0
 24 45  1  0
 25 46  1  0
 25 47  1  0
 26 48  1  0
 26 49  1  0
M  END
>  <Energy>  (575) 
210.3910009420257

>  <compound_id>  (575) 
6221

>  <target_id>  (575) 
1

>  <reference_id>  (575) 
52

>  <inspiration_ids>  (575) 
[52, 30]

>  <energy_score>  (575) 
162.1082696390422

>  <distance_score>  (575) 
4.4599341872857705

>  <path>  (575) 
/opt/xchem-fragalysis-2/maxwin/BulkDock/SCRATCH/511014/C6221-P52/C6221-P52.minimised.mol

>  <scratch_subdir>  (575) 
/opt/xchem-fragalysis-2/maxwin/BulkDock/SCRATCH/511014/C6221-P52

>  <fragmenstein_runtime>  (575) 
17.060964345932007

>  <fragmenstein_outcome>  (575) 
too moved

>  <fragmenstein_mode>  (575) 
expansion

>  <fragmenstein_error>  (575) 


$$$$
C6221-P30
     RDKit          3D

 49 52  0  0  0  0  0  0  0  0999 V2000
  -14.0964  -22.9094   23.3800 O   0  0  0  0  0  0  0  0  0  0  0  0
  -12.9589  -22.6218   23.0758 C   0  0  0  0  0  0  0  0  0  0  0  0
  -12.1267  -22.9162   21.6967 N   0  0  0  0  0  0  0  0  0  0  0  0
  -12.5470  -23.8418   20.3165 C   0  0  0  0  0  0  0  0  0  0  0  0
  -13.5205  -25.0172   19.2529 C   0  0  0  0  0  0  0  0  0  0  0  0
  -12.9467  -26.2302   18.3604 C   0  0  0  0  0  0  0  0  0  0  0  0
  -13.3418  -26.1968   16.9499 N   0  0  0  0  0  0  0  0  0  0  0  0
  -14.6313  -26.0584   16.5066 C   0  0  0  0  0  0  0  0  0  0  0  0
  -14.6947  -25.9366   15.2020 N   0  0  0  0  0  0  0  0  0  0  0  0
  -13.3971  -26.0272   14.7694 C   0  0  0  0  0  0  0  0  0  0  0  0
  -12.8840  -25.9085   13.4687 C   0  0  0  0  0  0  0  0  0  0  0  0
  -11.5045  -26.0398   13.2711 C   0  0  0  0  0  0  0  0  0  0  0  0
  -10.6592  -26.3261   14.3420 C   0  0  0  0  0  0  0  0  0  0  0  0
  -11.1564  -26.4643   15.6438 C   0  0  0  0  0  0  0  0  0  0  0  0
  -12.5296  -26.2680   15.8372 C   0  0  0  0  0  0  0  0  0  0  0  0
  -12.2192  -22.0005   24.3038 C   0  0  0  0  0  0  0  0  0  0  0  0
  -11.1041  -22.8304   24.1834 C   0  0  0  0  0  0  0  0  0  0  0  0
  -10.6354  -23.9130   25.3270 C   0  0  0  0  0  0  0  0  0  0  0  0
  -11.5621  -24.3861   26.1909 C   0  0  0  0  0  0  0  0  0  0  0  0
  -12.7047  -23.7597   26.0731 N   0  0  0  0  0  0  0  0  0  0  0  0
  -12.5200  -22.4306   25.6982 C   0  0  0  0  0  0  0  0  0  0  0  0
  -11.8876  -21.6528   26.8819 N   0  0  0  0  0  0  0  0  0  0  0  0
  -12.7967  -22.0698   27.8691 C   0  0  0  0  0  0  0  0  0  0  0  0
  -12.6566  -21.2236   29.1000 C   0  0  0  0  0  0  0  0  0  0  0  0
  -11.3023  -21.6208   29.3395 C   0  0  0  0  0  0  0  0  0  0  0  0
  -10.8195  -21.9400   27.9281 C   0  0  0  0  0  0  0  0  0  0  0  0
  -11.2165  -22.4634   21.7420 H   0  0  0  0  0  0  0  0  0  0  0  0
  -11.5814  -24.3753   20.3268 H   0  0  0  0  0  0  0  0  0  0  0  0
  -12.6579  -24.6982   20.9369 H   0  0  0  0  0  0  0  0  0  0  0  0
  -14.1895  -25.5861   19.8798 H   0  0  0  0  0  0  0  0  0  0  0  0
  -14.0838  -24.4241   18.5280 H   0  0  0  0  0  0  0  0  0  0  0  0
  -11.8664  -26.3549   18.4033 H   0  0  0  0  0  0  0  0  0  0  0  0
  -13.3777  -27.1698   18.7336 H   0  0  0  0  0  0  0  0  0  0  0  0
  -15.4801  -26.0228   17.1770 H   0  0  0  0  0  0  0  0  0  0  0  0
  -13.5525  -25.7051   12.6395 H   0  0  0  0  0  0  0  0  0  0  0  0
  -11.0943  -25.9357   12.2698 H   0  0  0  0  0  0  0  0  0  0  0  0
   -9.5911  -26.4418   14.1661 H   0  0  0  0  0  0  0  0  0  0  0  0
  -10.4834  -26.6870   16.4629 H   0  0  0  0  0  0  0  0  0  0  0  0
  -10.3221  -22.4851   23.4936 H   0  0  0  0  0  0  0  0  0  0  0  0
   -9.6591  -24.3749   25.3249 H   0  0  0  0  0  0  0  0  0  0  0  0
  -11.4399  -25.2578   26.7994 H   0  0  0  0  0  0  0  0  0  0  0  0
  -12.5716  -23.1187   28.1536 H   0  0  0  0  0  0  0  0  0  0  0  0
  -13.7223  -22.0926   27.4010 H   0  0  0  0  0  0  0  0  0  0  0  0
  -12.7247  -20.1573   29.0000 H   0  0  0  0  0  0  0  0  0  0  0  0
  -13.2870  -21.4363   29.9389 H   0  0  0  0  0  0  0  0  0  0  0  0
  -11.2638  -22.4695   29.9658 H   0  0  0  0  0  0  0  0  0  0  0  0
  -10.8269  -20.8286   29.8753 H   0  0  0  0  0  0  0  0  0  0  0  0
  -10.1258  -21.1358   27.8480 H   0  0  0  0  0  0  0  0  0  0  0  0
  -10.3727  -22.9410   27.9076 H   0  0  0  0  0  0  0  0  0  0  0  0
  1  2  2  0
  2  3  1  0
  3  4  1  0
  4  5  1  0
  5  6  1  0
  6  7  1  0
  7  8  1  0
  8  9  2  0
  9 10  1  0
 10 11  2  0
 11 12  1  0
 12 13  2  0
 13 14  1  0
 14 15  2  0
  2 16  1  0
 16 17  2  0
 17 18  1  0
 18 19  2  0
 19 20  1  0
 20 21  2  0
 21 22  1  0
 22 23  1  0
 23 24  1  0
 24 25  1  0
 25 26  1  0
 15  7  1  0
 21 16  1  0
 26 22  1  0
 15 10  1  0
  3 27  1  0
  4 28  1  0
  4 29  1  0
  5 30  1  0
  5 31  1  0
  6 32  1  0
  6 33  1  0
  8 34  1  0
 11 35  1  0
 12 36  1  0
 13 37  1  0
 14 38  1  0
 17 39  1  0
 18 40  1  0
 19 41  1  0
 23 42  1  0
 23 43  1  0
 24 44  1  0
 24 45  1  0
 25 46  1  0
 25 47  1  0
 26 48  1  0
 26 49  1  0
M  END
>  <Energy>  (576) 
416.54881546123897

>  <compound_id>  (576) 
6221

>  <target_id>  (576) 
1

>  <reference_id>  (576) 
30

>  <inspiration_ids>  (576) 
[52, 30]

>  <energy_score>  (576) 
368.26608415825086

>  <distance_score>  (576) 
4.0768884151079945

>  <path>  (576) 
/opt/xchem-fragalysis-2/maxwin/BulkDock/SCRATCH/511014/C6221-P30/C6221-P30.minimised.mol

>  <scratch_subdir>  (576) 
/opt/xchem-fragalysis-2/maxwin/BulkDock/SCRATCH/511014/C6221-P30

>  <fragmenstein_runtime>  (576) 
17.00092363357544

>  <fragmenstein_outcome>  (576) 
too moved

>  <fragmenstein_mode>  (576) 
expansion

>  <fragmenstein_error>  (576) 


$$$$
C9273-P52
     RDKit          3D

 50 52  0  0  0  0  0  0  0  0999 V2000
  -13.9293  -27.9801   18.6671 C   0  0  0  0  0  0  0  0  0  0  0  0
  -13.2442  -26.8379   17.9365 C   0  0  0  0  0  0  0  0  0  0  0  0
  -11.7962  -27.1380   17.5427 C   0  0  0  0  0  0  0  0  0  0  0  0
  -13.6506  -25.3073   18.3274 C   0  0  0  0  0  0  0  0  0  0  0  0
  -12.9958  -24.4029   19.9266 C   0  0  0  0  0  0  0  0  0  0  0  0
  -12.5290  -22.8763   20.8705 N   0  0  0  0  0  0  0  0  0  0  0  0
  -12.0945  -22.3255   22.4306 C   0  0  0  0  0  0  0  0  0  0  0  0
  -12.6281  -22.4432   24.1159 C   0  0  0  0  0  0  0  0  0  0  0  0
  -12.0320  -21.6424   25.0160 N   0  0  0  0  0  0  0  0  0  0  0  0
  -11.8408  -22.3285   26.2282 C   0  0  0  0  0  0  0  0  0  0  0  0
  -11.3257  -21.9606   27.4896 C   0  0  0  0  0  0  0  0  0  0  0  0
  -11.1467  -22.9261   28.4943 C   0  0  0  0  0  0  0  0  0  0  0  0
  -11.4936  -24.2527   28.2624 C   0  0  0  0  0  0  0  0  0  0  0  0
  -12.0801  -24.6295   27.0493 C   0  0  0  0  0  0  0  0  0  0  0  0
  -12.2450  -23.6278   26.0726 C   0  0  0  0  0  0  0  0  0  0  0  0
  -13.0940  -23.4994   24.9677 N   0  0  0  0  0  0  0  0  0  0  0  0
  -14.4365  -23.9466   25.2407 C   0  0  0  0  0  0  0  0  0  0  0  0
  -14.9095  -24.9583   17.4621 N   0  0  0  0  0  0  0  0  0  0  0  0
  -16.0952  -25.8434   17.5232 C   0  0  0  0  0  0  0  0  0  0  0  0
  -16.4434  -26.3420   16.1260 C   0  0  0  0  0  0  0  0  0  0  0  0
  -15.8875  -25.2626   15.2458 C   0  0  0  0  0  0  0  0  0  0  0  0
  -14.6030  -24.9380   15.9761 C   0  0  0  0  0  0  0  0  0  0  0  0
  -14.4728  -27.6353   19.5406 H   0  0  0  0  0  0  0  0  0  0  0  0
  -14.6725  -28.4654   18.0208 H   0  0  0  0  0  0  0  0  0  0  0  0
  -13.2270  -28.7739   18.9223 H   0  0  0  0  0  0  0  0  0  0  0  0
  -13.6913  -27.0004   16.9530 H   0  0  0  0  0  0  0  0  0  0  0  0
  -11.4157  -26.3971   16.8342 H   0  0  0  0  0  0  0  0  0  0  0  0
  -11.7387  -28.1089   17.0345 H   0  0  0  0  0  0  0  0  0  0  0  0
  -11.1185  -27.1984   18.3813 H   0  0  0  0  0  0  0  0  0  0  0  0
  -13.0183  -24.8043   17.6390 H   0  0  0  0  0  0  0  0  0  0  0  0
  -12.0508  -24.8332   20.0847 H   0  0  0  0  0  0  0  0  0  0  0  0
  -12.9048  -23.6388   19.1493 H   0  0  0  0  0  0  0  0  0  0  0  0
  -12.2931  -22.1343   20.1917 H   0  0  0  0  0  0  0  0  0  0  0  0
  -11.0149  -22.3961   22.5108 H   0  0  0  0  0  0  0  0  0  0  0  0
  -12.1152  -21.2388   22.3221 H   0  0  0  0  0  0  0  0  0  0  0  0
  -11.0391  -20.9362   27.6739 H   0  0  0  0  0  0  0  0  0  0  0  0
  -10.7300  -22.6318   29.4539 H   0  0  0  0  0  0  0  0  0  0  0  0
  -11.3494  -24.9905   29.0480 H   0  0  0  0  0  0  0  0  0  0  0  0
  -12.4486  -25.6381   26.8966 H   0  0  0  0  0  0  0  0  0  0  0  0
  -14.6316  -24.0270   26.3087 H   0  0  0  0  0  0  0  0  0  0  0  0
  -14.4982  -24.9880   24.9133 H   0  0  0  0  0  0  0  0  0  0  0  0
  -15.1549  -23.2429   24.8167 H   0  0  0  0  0  0  0  0  0  0  0  0
  -16.9369  -25.2199   17.8476 H   0  0  0  0  0  0  0  0  0  0  0  0
  -16.0296  -26.6893   18.2026 H   0  0  0  0  0  0  0  0  0  0  0  0
  -17.5193  -26.4821   15.9871 H   0  0  0  0  0  0  0  0  0  0  0  0
  -15.9420  -27.2959   15.9241 H   0  0  0  0  0  0  0  0  0  0  0  0
  -16.5583  -24.3963   15.2201 H   0  0  0  0  0  0  0  0  0  0  0  0
  -15.7170  -25.6025   14.2204 H   0  0  0  0  0  0  0  0  0  0  0  0
  -14.2382  -23.9831   15.6286 H   0  0  0  0  0  0  0  0  0  0  0  0
  -13.8506  -25.6653   15.6602 H   0  0  0  0  0  0  0  0  0  0  0  0
  1  2  1  0
  2  3  1  0
  2  4  1  0
  4  5  1  0
  5  6  1  0
  6  7  1  0
  7  8  1  0
  8  9  2  0
  9 10  1  0
 10 11  2  0
 11 12  1  0
 12 13  2  0
 13 14  1  0
 14 15  2  0
 15 16  1  0
 16 17  1  0
  4 18  1  0
 18 19  1  0
 19 20  1  0
 20 21  1  0
 21 22  1  0
 16  8  1  0
 22 18  1  0
 15 10  1  0
  1 23  1  0
  1 24  1  0
  1 25  1  0
  2 26  1  0
  3 27  1  0
  3 28  1  0
  3 29  1  0
  4 30  1  0
  5 31  1  0
  5 32  1  0
  6 33  1  0
  7 34  1  0
  7 35  1  0
 11 36  1  0
 12 37  1  0
 13 38  1  0
 14 39  1  0
 17 40  1  0
 17 41  1  0
 17 42  1  0
 19 43  1  0
 19 44  1  0
 20 45  1  0
 20 46  1  0
 21 47  1  0
 21 48  1  0
 22 49  1  0
 22 50  1  0
M  END
>  <Energy>  (577) 
378.71593703923372

>  <compound_id>  (577) 
9273

>  <target_id>  (577) 
1

>  <reference_id>  (577) 
52

>  <inspiration_ids>  (577) 
[52, 30]

>  <energy_score>  (577) 
266.700441141387

>  <distance_score>  (577) 
5.449644134889315

>  <path>  (577) 
/opt/xchem-fragalysis-2/maxwin/BulkDock/SCRATCH/511014/C9273-P52/C9273-P52.minimised.mol

>  <scratch_subdir>  (577) 
/opt/xchem-fragalysis-2/maxwin/BulkDock/SCRATCH/511014/C9273-P52

>  <fragmenstein_runtime>  (577) 
10.32535719871521

>  <fragmenstein_outcome>  (577) 
too moved

>  <fragmenstein_mode>  (577) 
expansion

>  <fragmenstein_error>  (577) 


$$$$
C9273-P30
     RDKit          3D

 50 52  0  0  0  0  0  0  0  0999 V2000
  -13.9198  -27.5738   18.0803 C   0  0  0  0  0  0  0  0  0  0  0  0
  -13.1357  -26.2990   17.7576 C   0  0  0  0  0  0  0  0  0  0  0  0
  -12.6396  -26.3258   16.3035 C   0  0  0  0  0  0  0  0  0  0  0  0
  -13.8258  -24.8954   18.2642 C   0  0  0  0  0  0  0  0  0  0  0  0
  -13.0870  -24.5246   19.8732 C   0  0  0  0  0  0  0  0  0  0  0  0
  -12.5646  -23.2758   20.9598 N   0  0  0  0  0  0  0  0  0  0  0  0
  -12.9377  -22.5561   22.4855 C   0  0  0  0  0  0  0  0  0  0  0  0
  -12.8076  -22.6806   24.0920 C   0  0  0  0  0  0  0  0  0  0  0  0
  -12.4790  -21.6876   24.9262 N   0  0  0  0  0  0  0  0  0  0  0  0
  -12.2999  -22.2898   26.1870 C   0  0  0  0  0  0  0  0  0  0  0  0
  -11.9830  -21.9038   27.4756 C   0  0  0  0  0  0  0  0  0  0  0  0
  -11.1352  -22.7180   28.1830 C   0  0  0  0  0  0  0  0  0  0  0  0
  -10.6960  -23.9051   27.6215 C   0  0  0  0  0  0  0  0  0  0  0  0
  -11.4289  -24.4939   26.5911 C   0  0  0  0  0  0  0  0  0  0  0  0
  -12.3299  -23.6321   25.9894 C   0  0  0  0  0  0  0  0  0  0  0  0
  -13.2899  -23.6446   25.0027 N   0  0  0  0  0  0  0  0  0  0  0  0
  -14.2736  -24.6792   24.9435 C   0  0  0  0  0  0  0  0  0  0  0  0
  -15.2687  -24.7816   17.9426 N   0  0  0  0  0  0  0  0  0  0  0  0
  -16.2852  -25.5172   18.6783 C   0  0  0  0  0  0  0  0  0  0  0  0
  -17.3804  -25.8551   17.6643 C   0  0  0  0  0  0  0  0  0  0  0  0
  -17.0939  -24.9380   16.4930 C   0  0  0  0  0  0  0  0  0  0  0  0
  -15.5840  -24.9228   16.5073 C   0  0  0  0  0  0  0  0  0  0  0  0
  -14.1675  -27.6248   19.1441 H   0  0  0  0  0  0  0  0  0  0  0  0
  -14.8335  -27.6629   17.4886 H   0  0  0  0  0  0  0  0  0  0  0  0
  -13.3115  -28.4596   17.8617 H   0  0  0  0  0  0  0  0  0  0  0  0
  -12.2127  -26.4288   18.3320 H   0  0  0  0  0  0  0  0  0  0  0  0
  -13.3444  -25.9317   15.5744 H   0  0  0  0  0  0  0  0  0  0  0  0
  -12.3835  -27.3463   15.9966 H   0  0  0  0  0  0  0  0  0  0  0  0
  -11.7189  -25.7442   16.2086 H   0  0  0  0  0  0  0  0  0  0  0  0
  -13.4689  -24.1048   17.6194 H   0  0  0  0  0  0  0  0  0  0  0  0
  -13.3785  -25.5227   20.1613 H   0  0  0  0  0  0  0  0  0  0  0  0
  -12.0665  -24.8391   19.8142 H   0  0  0  0  0  0  0  0  0  0  0  0
  -12.4754  -22.4402   20.3626 H   0  0  0  0  0  0  0  0  0  0  0  0
  -12.5270  -21.5605   22.3380 H   0  0  0  0  0  0  0  0  0  0  0  0
  -13.9631  -22.7488   22.6293 H   0  0  0  0  0  0  0  0  0  0  0  0
  -12.2814  -20.9880   27.9259 H   0  0  0  0  0  0  0  0  0  0  0  0
  -10.8253  -22.3715   29.1503 H   0  0  0  0  0  0  0  0  0  0  0  0
   -9.9586  -24.4836   28.1512 H   0  0  0  0  0  0  0  0  0  0  0  0
  -11.2818  -25.5223   26.3012 H   0  0  0  0  0  0  0  0  0  0  0  0
  -14.0728  -25.3768   24.1440 H   0  0  0  0  0  0  0  0  0  0  0  0
  -15.2640  -24.2270   24.8681 H   0  0  0  0  0  0  0  0  0  0  0  0
  -14.2074  -25.3038   25.8340 H   0  0  0  0  0  0  0  0  0  0  0  0
  -16.7390  -24.8546   19.4184 H   0  0  0  0  0  0  0  0  0  0  0  0
  -15.9430  -26.4103   19.2005 H   0  0  0  0  0  0  0  0  0  0  0  0
  -18.3861  -25.7046   18.0681 H   0  0  0  0  0  0  0  0  0  0  0  0
  -17.2900  -26.9021   17.3506 H   0  0  0  0  0  0  0  0  0  0  0  0
  -17.5039  -23.9380   16.6753 H   0  0  0  0  0  0  0  0  0  0  0  0
  -17.5064  -25.3203   15.5551 H   0  0  0  0  0  0  0  0  0  0  0  0
  -15.1752  -24.1149   15.8963 H   0  0  0  0  0  0  0  0  0  0  0  0
  -15.2591  -25.8816   16.1002 H   0  0  0  0  0  0  0  0  0  0  0  0
  1  2  1  0
  2  3  1  0
  2  4  1  0
  4  5  1  0
  5  6  1  0
  6  7  1  0
  7  8  1  0
  8  9  2  0
  9 10  1  0
 10 11  2  0
 11 12  1  0
 12 13  2  0
 13 14  1  0
 14 15  2  0
 15 16  1  0
 16 17  1  0
  4 18  1  0
 18 19  1  0
 19 20  1  0
 20 21  1  0
 21 22  1  0
 16  8  1  0
 22 18  1  0
 15 10  1  0
  1 23  1  0
  1 24  1  0
  1 25  1  0
  2 26  1  0
  3 27  1  0
  3 28  1  0
  3 29  1  0
  4 30  1  0
  5 31  1  0
  5 32  1  0
  6 33  1  0
  7 34  1  0
  7 35  1  0
 11 36  1  0
 12 37  1  0
 13 38  1  0
 14 39  1  0
 17 40  1  0
 17 41  1  0
 17 42  1  0
 19 43  1  0
 19 44  1  0
 20 45  1  0
 20 46  1  0
 21 47  1  0
 21 48  1  0
 22 49  1  0
 22 50  1  0
M  END
>  <Energy>  (578) 
314.07558443496777

>  <compound_id>  (578) 
9273

>  <target_id>  (578) 
1

>  <reference_id>  (578) 
30

>  <inspiration_ids>  (578) 
[52, 30]

>  <energy_score>  (578) 
202.06008853712086

>  <distance_score>  (578) 
5.847418421272599

>  <path>  (578) 
/opt/xchem-fragalysis-2/maxwin/BulkDock/SCRATCH/511014/C9273-P30/C9273-P30.minimised.mol

>  <scratch_subdir>  (578) 
/opt/xchem-fragalysis-2/maxwin/BulkDock/SCRATCH/511014/C9273-P30

>  <fragmenstein_runtime>  (578) 
13.02691912651062

>  <fragmenstein_outcome>  (578) 
too moved

>  <fragmenstein_mode>  (578) 
expansion

>  <fragmenstein_error>  (578) 


$$$$
C9242-P52
     RDKit          3D

 46 49  0  0  0  0  0  0  0  0999 V2000
  -10.9593  -26.4683   18.6897 C   0  0  0  0  0  0  0  0  0  0  0  0
  -10.9713  -25.1659   20.3574 C   0  0  0  0  0  0  0  0  0  0  0  0
  -10.2683  -26.9620   22.0609 S   0  0  0  0  0  0  0  0  0  0  0  0
  -11.3270  -26.7431   24.2476 C   0  0  0  0  0  0  0  0  0  0  0  0
  -12.5903  -27.1298   24.6523 N   0  0  0  0  0  0  0  0  0  0  0  0
  -12.6983  -26.9867   26.0722 C   0  0  0  0  0  0  0  0  0  0  0  0
  -13.6637  -27.4642   26.9812 C   0  0  0  0  0  0  0  0  0  0  0  0
  -13.4671  -27.2892   28.3673 C   0  0  0  0  0  0  0  0  0  0  0  0
  -12.3435  -26.6272   28.8616 C   0  0  0  0  0  0  0  0  0  0  0  0
  -11.3972  -26.0966   27.9868 C   0  0  0  0  0  0  0  0  0  0  0  0
  -11.6029  -26.3126   26.6081 C   0  0  0  0  0  0  0  0  0  0  0  0
  -11.0350  -25.6875   25.4775 N   0  0  0  0  0  0  0  0  0  0  0  0
  -11.4017  -24.2691   25.5386 C   0  0  0  0  0  0  0  0  0  0  0  0
  -12.7583  -23.9511   25.8038 C   0  0  0  0  0  0  0  0  0  0  0  0
  -13.3551  -22.9063   25.1289 C   0  0  0  0  0  0  0  0  0  0  0  0
  -12.5949  -22.1008   24.3069 C   0  0  0  0  0  0  0  0  0  0  0  0
  -11.2590  -22.3509   24.1303 C   0  0  0  0  0  0  0  0  0  0  0  0
  -10.6244  -23.3724   24.8540 C   0  0  0  0  0  0  0  0  0  0  0  0
  -12.8723  -25.2310   19.7851 C   0  0  0  0  0  0  0  0  0  0  0  0
  -13.5946  -25.1095   20.7440 O   0  0  0  0  0  0  0  0  0  0  0  0
  -13.3031  -25.4419   18.1820 N   0  0  0  0  0  0  0  0  0  0  0  0
  -14.6936  -25.4208   17.5056 C   0  0  0  0  0  0  0  0  0  0  0  0
  -15.5477  -26.6580   17.3612 C   0  0  0  0  0  0  0  0  0  0  0  0
  -14.4706  -27.5031   16.8757 C   0  0  0  0  0  0  0  0  0  0  0  0
  -13.4234  -26.9720   17.8351 C   0  0  0  0  0  0  0  0  0  0  0  0
  -11.5645  -27.3829   18.8180 H   0  0  0  0  0  0  0  0  0  0  0  0
  -10.1090  -27.1056   18.4792 H   0  0  0  0  0  0  0  0  0  0  0  0
  -11.0952  -26.0768   17.6664 H   0  0  0  0  0  0  0  0  0  0  0  0
  -10.1950  -24.4542   20.3735 H   0  0  0  0  0  0  0  0  0  0  0  0
  -14.5350  -27.9955   26.6123 H   0  0  0  0  0  0  0  0  0  0  0  0
  -14.2085  -27.6854   29.0584 H   0  0  0  0  0  0  0  0  0  0  0  0
  -12.2174  -26.4927   29.9326 H   0  0  0  0  0  0  0  0  0  0  0  0
  -10.5647  -25.4997   28.3474 H   0  0  0  0  0  0  0  0  0  0  0  0
  -13.4324  -24.5913   26.3618 H   0  0  0  0  0  0  0  0  0  0  0  0
  -14.4248  -22.7321   25.1917 H   0  0  0  0  0  0  0  0  0  0  0  0
  -13.0407  -21.2659   23.8030 H   0  0  0  0  0  0  0  0  0  0  0  0
  -10.7041  -21.7587   23.4006 H   0  0  0  0  0  0  0  0  0  0  0  0
   -9.5862  -23.5932   24.6447 H   0  0  0  0  0  0  0  0  0  0  0  0
  -14.4823  -25.0112   16.5045 H   0  0  0  0  0  0  0  0  0  0  0  0
  -15.3801  -24.7233   17.9327 H   0  0  0  0  0  0  0  0  0  0  0  0
  -16.3657  -26.5337   16.6466 H   0  0  0  0  0  0  0  0  0  0  0  0
  -15.9561  -27.0107   18.3132 H   0  0  0  0  0  0  0  0  0  0  0  0
  -14.2132  -27.2980   15.8291 H   0  0  0  0  0  0  0  0  0  0  0  0
  -14.6515  -28.5753   16.9895 H   0  0  0  0  0  0  0  0  0  0  0  0
  -13.4561  -27.5481   18.7510 H   0  0  0  0  0  0  0  0  0  0  0  0
  -12.5391  -27.2408   17.2527 H   0  0  0  0  0  0  0  0  0  0  0  0
  1  2  1  0
  2  3  1  0
  3  4  1  0
  4  5  2  0
  5  6  1  0
  6  7  2  0
  7  8  1  0
  8  9  2  0
  9 10  1  0
 10 11  2  0
 11 12  1  0
 12 13  1  0
 13 14  2  0
 14 15  1  0
 15 16  2  0
 16 17  1  0
 17 18  2  0
  2 19  1  0
 19 20  2  0
 19 21  1  0
 21 22  1  0
 22 23  1  0
 23 24  1  0
 24 25  1  0
 12  4  1  0
 18 13  1  0
 25 21  1  0
 11  6  1  0
  1 26  1  0
  1 27  1  0
  1 28  1  0
  2 29  1  0
  7 30  1  0
  8 31  1  0
  9 32  1  0
 10 33  1  0
 14 34  1  0
 15 35  1  0
 16 36  1  0
 17 37  1  0
 18 38  1  0
 22 39  1  0
 22 40  1  0
 23 41  1  0
 23 42  1  0
 24 43  1  0
 24 44  1  0
 25 45  1  0
 25 46  1  0
M  END
>  <Energy>  (579) 
700.40069947694815

>  <compound_id>  (579) 
9242

>  <target_id>  (579) 
1

>  <reference_id>  (579) 
52

>  <inspiration_ids>  (579) 
[52, 30]

>  <energy_score>  (579) 
585.7108989256536

>  <distance_score>  (579) 
6.061636045895811

>  <path>  (579) 
/opt/xchem-fragalysis-2/maxwin/BulkDock/SCRATCH/511014/C9242-P52/C9242-P52.minimised.mol

>  <scratch_subdir>  (579) 
/opt/xchem-fragalysis-2/maxwin/BulkDock/SCRATCH/511014/C9242-P52

>  <fragmenstein_runtime>  (579) 
10.18755030632019

>  <fragmenstein_outcome>  (579) 
too moved

>  <fragmenstein_mode>  (579) 
expansion

>  <fragmenstein_error>  (579) 


$$$$
C9242-P30
     RDKit          3D

 46 49  0  0  0  0  0  0  0  0999 V2000
  -15.9655  -24.0261   19.2746 C   0  0  0  0  0  0  0  0  0  0  0  0
  -14.3963  -24.3467   19.3451 C   0  0  0  0  0  0  0  0  0  0  0  0
  -12.8801  -23.3022   20.7118 S   0  0  0  0  0  0  0  0  0  0  0  0
  -13.3039  -22.6610   22.7956 C   0  0  0  0  0  0  0  0  0  0  0  0
  -12.3975  -22.0896   23.6199 N   0  0  0  0  0  0  0  0  0  0  0  0
  -12.7125  -22.6054   24.9220 C   0  0  0  0  0  0  0  0  0  0  0  0
  -12.1733  -22.5098   26.2042 C   0  0  0  0  0  0  0  0  0  0  0  0
  -11.9603  -23.7277   26.8380 C   0  0  0  0  0  0  0  0  0  0  0  0
  -12.6303  -24.8845   26.4225 C   0  0  0  0  0  0  0  0  0  0  0  0
  -13.6740  -24.7956   25.5222 C   0  0  0  0  0  0  0  0  0  0  0  0
  -13.6459  -23.6120   24.7890 C   0  0  0  0  0  0  0  0  0  0  0  0
  -14.3569  -23.0682   23.7625 N   0  0  0  0  0  0  0  0  0  0  0  0
  -15.7589  -22.7806   24.0128 C   0  0  0  0  0  0  0  0  0  0  0  0
  -16.5922  -23.8037   24.5131 C   0  0  0  0  0  0  0  0  0  0  0  0
  -17.9354  -23.5708   24.7907 C   0  0  0  0  0  0  0  0  0  0  0  0
  -18.4653  -22.3087   24.5758 C   0  0  0  0  0  0  0  0  0  0  0  0
  -17.6445  -21.2818   24.1214 C   0  0  0  0  0  0  0  0  0  0  0  0
  -16.2886  -21.5043   23.8856 C   0  0  0  0  0  0  0  0  0  0  0  0
  -13.8639  -25.2473   18.0838 C   0  0  0  0  0  0  0  0  0  0  0  0
  -12.9899  -26.0507   18.3022 O   0  0  0  0  0  0  0  0  0  0  0  0
  -14.5387  -24.9169   16.8575 N   0  0  0  0  0  0  0  0  0  0  0  0
  -14.2981  -25.3829   15.4437 C   0  0  0  0  0  0  0  0  0  0  0  0
  -15.4534  -25.0207   14.5430 C   0  0  0  0  0  0  0  0  0  0  0  0
  -16.5743  -25.3272   15.4749 C   0  0  0  0  0  0  0  0  0  0  0  0
  -15.7809  -25.7796   16.6844 C   0  0  0  0  0  0  0  0  0  0  0  0
  -16.5420  -24.9106   19.5766 H   0  0  0  0  0  0  0  0  0  0  0  0
  -16.3093  -23.1983   19.8863 H   0  0  0  0  0  0  0  0  0  0  0  0
  -16.3850  -23.8519   18.2827 H   0  0  0  0  0  0  0  0  0  0  0  0
  -14.4667  -25.3316   19.8155 H   0  0  0  0  0  0  0  0  0  0  0  0
  -11.7040  -21.6162   26.5836 H   0  0  0  0  0  0  0  0  0  0  0  0
  -11.2286  -23.7480   27.6410 H   0  0  0  0  0  0  0  0  0  0  0  0
  -12.3671  -25.8607   26.8073 H   0  0  0  0  0  0  0  0  0  0  0  0
  -14.2994  -25.6357   25.2578 H   0  0  0  0  0  0  0  0  0  0  0  0
  -16.2298  -24.8122   24.6695 H   0  0  0  0  0  0  0  0  0  0  0  0
  -18.5649  -24.3696   25.1709 H   0  0  0  0  0  0  0  0  0  0  0  0
  -19.5097  -22.1069   24.7967 H   0  0  0  0  0  0  0  0  0  0  0  0
  -18.0491  -20.2777   24.0223 H   0  0  0  0  0  0  0  0  0  0  0  0
  -15.6629  -20.6425   23.7073 H   0  0  0  0  0  0  0  0  0  0  0  0
  -14.0028  -26.4459   15.4087 H   0  0  0  0  0  0  0  0  0  0  0  0
  -13.4082  -24.8795   15.0683 H   0  0  0  0  0  0  0  0  0  0  0  0
  -15.4690  -25.6164   13.6264 H   0  0  0  0  0  0  0  0  0  0  0  0
  -15.4419  -23.9589   14.2748 H   0  0  0  0  0  0  0  0  0  0  0  0
  -17.1609  -24.4285   15.6929 H   0  0  0  0  0  0  0  0  0  0  0  0
  -17.2476  -26.1066   15.1078 H   0  0  0  0  0  0  0  0  0  0  0  0
  -15.5205  -26.8541   16.6608 H   0  0  0  0  0  0  0  0  0  0  0  0
  -16.4165  -25.7313   17.5683 H   0  0  0  0  0  0  0  0  0  0  0  0
  1  2  1  0
  2  3  1  0
  3  4  1  0
  4  5  2  0
  5  6  1  0
  6  7  2  0
  7  8  1  0
  8  9  2  0
  9 10  1  0
 10 11  2  0
 11 12  1  0
 12 13  1  0
 13 14  2  0
 14 15  1  0
 15 16  2  0
 16 17  1  0
 17 18  2  0
  2 19  1  0
 19 20  2  0
 19 21  1  0
 21 22  1  0
 22 23  1  0
 23 24  1  0
 24 25  1  0
 12  4  1  0
 18 13  1  0
 25 21  1  0
 11  6  1  0
  1 26  1  0
  1 27  1  0
  1 28  1  0
  2 29  1  0
  7 30  1  0
  8 31  1  0
  9 32  1  0
 10 33  1  0
 14 34  1  0
 15 35  1  0
 16 36  1  0
 17 37  1  0
 18 38  1  0
 22 39  1  0
 22 40  1  0
 23 41  1  0
 23 42  1  0
 24 43  1  0
 24 44  1  0
 25 45  1  0
 25 46  1  0
M  END
>  <Energy>  (580) 
368.03735538328618

>  <compound_id>  (580) 
9242

>  <target_id>  (580) 
1

>  <reference_id>  (580) 
30

>  <inspiration_ids>  (580) 
[52, 30]

>  <energy_score>  (580) 
253.34755483198808

>  <distance_score>  (580) 
6.5757388159111

>  <path>  (580) 
/opt/xchem-fragalysis-2/maxwin/BulkDock/SCRATCH/511014/C9242-P30/C9242-P30.minimised.mol

>  <scratch_subdir>  (580) 
/opt/xchem-fragalysis-2/maxwin/BulkDock/SCRATCH/511014/C9242-P30

>  <fragmenstein_runtime>  (580) 
12.33052110671997

>  <fragmenstein_outcome>  (580) 
too moved

>  <fragmenstein_mode>  (580) 
expansion

>  <fragmenstein_error>  (580) 


$$$$
C9275-P52
     RDKit          3D

 46 49  0  0  0  0  0  0  0  0999 V2000
  -11.8643  -22.1465   20.1390 O   0  0  0  0  0  0  0  0  0  0  0  0
  -12.3775  -23.0143   20.7982 C   0  0  0  0  0  0  0  0  0  0  0  0
  -13.0567  -24.5679   20.3006 N   0  0  0  0  0  0  0  0  0  0  0  0
  -13.2765  -25.1976   18.8144 C   0  0  0  0  0  0  0  0  0  0  0  0
  -14.1709  -26.3629   18.0943 C   0  0  0  0  0  0  0  0  0  0  0  0
  -14.8532  -27.1143   18.7370 O   0  0  0  0  0  0  0  0  0  0  0  0
  -13.8884  -26.3356   16.6872 N   0  0  0  0  0  0  0  0  0  0  0  0
  -14.2601  -27.2905   15.5978 C   0  0  0  0  0  0  0  0  0  0  0  0
  -14.0389  -26.6912   14.2301 C   0  0  0  0  0  0  0  0  0  0  0  0
  -14.5923  -25.3367   14.4912 C   0  0  0  0  0  0  0  0  0  0  0  0
  -14.8910  -25.4754   15.9704 C   0  0  0  0  0  0  0  0  0  0  0  0
  -12.5456  -22.4981   22.5411 C   0  0  0  0  0  0  0  0  0  0  0  0
  -13.3877  -23.1110   23.5336 C   0  0  0  0  0  0  0  0  0  0  0  0
  -13.2903  -23.1273   24.9373 C   0  0  0  0  0  0  0  0  0  0  0  0
  -12.3341  -22.3469   25.4613 C   0  0  0  0  0  0  0  0  0  0  0  0
  -11.9567  -22.5044   26.8459 N   0  0  0  0  0  0  0  0  0  0  0  0
  -11.4565  -21.5255   27.6582 C   0  0  0  0  0  0  0  0  0  0  0  0
  -11.3242  -21.8474   28.9175 N   0  0  0  0  0  0  0  0  0  0  0  0
  -11.5762  -23.1795   28.9380 C   0  0  0  0  0  0  0  0  0  0  0  0
  -11.4437  -24.0607   30.0230 C   0  0  0  0  0  0  0  0  0  0  0  0
  -11.6616  -25.4205   29.8132 C   0  0  0  0  0  0  0  0  0  0  0  0
  -12.0292  -25.8843   28.5514 C   0  0  0  0  0  0  0  0  0  0  0  0
  -12.1896  -25.0130   27.4595 C   0  0  0  0  0  0  0  0  0  0  0  0
  -11.9655  -23.6434   27.6713 C   0  0  0  0  0  0  0  0  0  0  0  0
  -11.9148  -21.3465   24.5515 C   0  0  0  0  0  0  0  0  0  0  0  0
  -11.8242  -21.5014   23.1278 C   0  0  0  0  0  0  0  0  0  0  0  0
  -13.4894  -25.0345   21.0933 H   0  0  0  0  0  0  0  0  0  0  0  0
  -12.4650  -25.9213   18.7370 H   0  0  0  0  0  0  0  0  0  0  0  0
  -13.3645  -24.3376   18.1587 H   0  0  0  0  0  0  0  0  0  0  0  0
  -13.5841  -28.1466   15.7249 H   0  0  0  0  0  0  0  0  0  0  0  0
  -15.2624  -27.7255   15.7535 H   0  0  0  0  0  0  0  0  0  0  0  0
  -14.5623  -27.2380   13.4415 H   0  0  0  0  0  0  0  0  0  0  0  0
  -12.9736  -26.6414   13.9805 H   0  0  0  0  0  0  0  0  0  0  0  0
  -15.4933  -25.1112   13.9137 H   0  0  0  0  0  0  0  0  0  0  0  0
  -13.8477  -24.5646   14.2860 H   0  0  0  0  0  0  0  0  0  0  0  0
  -15.9269  -25.7966   16.1804 H   0  0  0  0  0  0  0  0  0  0  0  0
  -14.8290  -24.4941   16.4373 H   0  0  0  0  0  0  0  0  0  0  0  0
  -13.7665  -24.0580   23.2754 H   0  0  0  0  0  0  0  0  0  0  0  0
  -13.8624  -23.8500   25.5062 H   0  0  0  0  0  0  0  0  0  0  0  0
  -11.2458  -20.5750   27.2489 H   0  0  0  0  0  0  0  0  0  0  0  0
  -11.1365  -23.6812   30.9929 H   0  0  0  0  0  0  0  0  0  0  0  0
  -11.5212  -26.1181   30.6341 H   0  0  0  0  0  0  0  0  0  0  0  0
  -12.1790  -26.9519   28.3999 H   0  0  0  0  0  0  0  0  0  0  0  0
  -12.4324  -25.4109   26.4805 H   0  0  0  0  0  0  0  0  0  0  0  0
  -11.6187  -20.3751   24.9209 H   0  0  0  0  0  0  0  0  0  0  0  0
  -11.2375  -20.8207   22.5195 H   0  0  0  0  0  0  0  0  0  0  0  0
  1  2  2  0
  2  3  1  0
  3  4  1  0
  4  5  1  0
  5  6  2  0
  5  7  1  0
  7  8  1  0
  8  9  1  0
  9 10  1  0
 10 11  1  0
  2 12  1  0
 12 13  2  0
 13 14  1  0
 14 15  2  0
 15 16  1  0
 16 17  1  0
 17 18  2  0
 18 19  1  0
 19 20  2  0
 20 21  1  0
 21 22  2  0
 22 23  1  0
 23 24  2  0
 15 25  1  0
 25 26  2  0
 11  7  1  0
 26 12  1  0
 24 16  1  0
 24 19  1  0
  3 27  1  0
  4 28  1  0
  4 29  1  0
  8 30  1  0
  8 31  1  0
  9 32  1  0
  9 33  1  0
 10 34  1  0
 10 35  1  0
 11 36  1  0
 11 37  1  0
 13 38  1  0
 14 39  1  0
 17 40  1  0
 20 41  1  0
 21 42  1  0
 22 43  1  0
 23 44  1  0
 25 45  1  0
 26 46  1  0
M  END
>  <Energy>  (581) 
283.52788975663088

>  <compound_id>  (581) 
9275

>  <target_id>  (581) 
1

>  <reference_id>  (581) 
52

>  <inspiration_ids>  (581) 
[52, 30]

>  <energy_score>  (581) 
160.26952766142955

>  <distance_score>  (581) 
4.4844339564109745

>  <path>  (581) 
/opt/xchem-fragalysis-2/maxwin/BulkDock/SCRATCH/511014/C9275-P52/C9275-P52.minimised.mol

>  <scratch_subdir>  (581) 
/opt/xchem-fragalysis-2/maxwin/BulkDock/SCRATCH/511014/C9275-P52

>  <fragmenstein_runtime>  (581) 
13.495707511901855

>  <fragmenstein_outcome>  (581) 
too moved

>  <fragmenstein_mode>  (581) 
expansion

>  <fragmenstein_error>  (581) 


$$$$
C9275-P30
     RDKit          3D

 46 49  0  0  0  0  0  0  0  0999 V2000
  -12.2263  -22.0253   20.6466 O   0  0  0  0  0  0  0  0  0  0  0  0
  -12.4947  -23.0366   21.2408 C   0  0  0  0  0  0  0  0  0  0  0  0
  -12.8426  -24.6265   20.5835 N   0  0  0  0  0  0  0  0  0  0  0  0
  -13.0066  -25.0836   19.2106 C   0  0  0  0  0  0  0  0  0  0  0  0
  -14.0807  -26.1785   18.7674 C   0  0  0  0  0  0  0  0  0  0  0  0
  -14.8519  -26.6749   19.5417 O   0  0  0  0  0  0  0  0  0  0  0  0
  -13.8465  -26.4573   17.3704 N   0  0  0  0  0  0  0  0  0  0  0  0
  -14.4077  -27.5191   16.4804 C   0  0  0  0  0  0  0  0  0  0  0  0
  -14.1386  -27.2238   15.0233 C   0  0  0  0  0  0  0  0  0  0  0  0
  -14.4373  -25.7673   15.0281 C   0  0  0  0  0  0  0  0  0  0  0  0
  -14.7259  -25.5815   16.5049 C   0  0  0  0  0  0  0  0  0  0  0  0
  -12.6992  -22.7025   23.1369 C   0  0  0  0  0  0  0  0  0  0  0  0
  -13.4504  -23.5280   24.1780 C   0  0  0  0  0  0  0  0  0  0  0  0
  -13.0359  -23.8141   25.6888 C   0  0  0  0  0  0  0  0  0  0  0  0
  -12.0358  -23.1241   26.3310 C   0  0  0  0  0  0  0  0  0  0  0  0
  -11.7908  -23.0737   27.9921 N   0  0  0  0  0  0  0  0  0  0  0  0
  -12.4420  -21.8993   28.1958 C   0  0  0  0  0  0  0  0  0  0  0  0
  -12.2021  -21.0751   29.1126 N   0  0  0  0  0  0  0  0  0  0  0  0
  -11.3949  -21.8147   29.8021 C   0  0  0  0  0  0  0  0  0  0  0  0
  -11.2996  -21.5279   31.1160 C   0  0  0  0  0  0  0  0  0  0  0  0
  -10.6915  -22.4405   32.3426 C   0  0  0  0  0  0  0  0  0  0  0  0
  -10.0653  -23.7120   32.3129 C   0  0  0  0  0  0  0  0  0  0  0  0
  -10.2053  -23.9587   30.9160 C   0  0  0  0  0  0  0  0  0  0  0  0
  -10.7777  -23.0193   29.3445 C   0  0  0  0  0  0  0  0  0  0  0  0
  -12.1104  -21.9378   25.4886 C   0  0  0  0  0  0  0  0  0  0  0  0
  -12.1611  -21.7525   23.9370 C   0  0  0  0  0  0  0  0  0  0  0  0
  -12.9451  -25.2884   21.3269 H   0  0  0  0  0  0  0  0  0  0  0  0
  -13.4312  -24.2692   18.6173 H   0  0  0  0  0  0  0  0  0  0  0  0
  -12.1650  -25.7491   18.9478 H   0  0  0  0  0  0  0  0  0  0  0  0
  -13.8774  -28.4387   16.7618 H   0  0  0  0  0  0  0  0  0  0  0  0
  -15.4616  -27.7433   16.7181 H   0  0  0  0  0  0  0  0  0  0  0  0
  -13.0917  -27.4116   14.7617 H   0  0  0  0  0  0  0  0  0  0  0  0
  -14.7794  -27.8035   14.3537 H   0  0  0  0  0  0  0  0  0  0  0  0
  -15.2939  -25.4918   14.4066 H   0  0  0  0  0  0  0  0  0  0  0  0
  -13.5686  -25.1879   14.7015 H   0  0  0  0  0  0  0  0  0  0  0  0
  -15.7928  -25.6906   16.7681 H   0  0  0  0  0  0  0  0  0  0  0  0
  -14.4998  -24.5416   16.7607 H   0  0  0  0  0  0  0  0  0  0  0  0
  -14.1120  -24.3321   23.8940 H   0  0  0  0  0  0  0  0  0  0  0  0
  -13.5004  -24.6748   26.1496 H   0  0  0  0  0  0  0  0  0  0  0  0
  -13.2297  -21.7611   27.5339 H   0  0  0  0  0  0  0  0  0  0  0  0
  -11.9810  -20.7286   31.3330 H   0  0  0  0  0  0  0  0  0  0  0  0
   -9.8839  -21.7009   32.5874 H   0  0  0  0  0  0  0  0  0  0  0  0
   -9.2550  -24.1183   32.8731 H   0  0  0  0  0  0  0  0  0  0  0  0
  -11.1337  -24.1794   31.6815 H   0  0  0  0  0  0  0  0  0  0  0  0
  -11.8547  -21.0050   25.9726 H   0  0  0  0  0  0  0  0  0  0  0  0
  -11.7186  -20.8525   23.5201 H   0  0  0  0  0  0  0  0  0  0  0  0
  1  2  2  0
  2  3  1  0
  3  4  1  0
  4  5  1  0
  5  6  2  0
  5  7  1  0
  7  8  1  0
  8  9  1  0
  9 10  1  0
 10 11  1  0
  2 12  1  0
 12 13  2  0
 13 14  1  0
 14 15  2  0
 15 16  1  0
 16 17  1  0
 17 18  2  0
 18 19  1  0
 19 20  2  0
 20 21  1  0
 21 22  2  0
 22 23  1  0
 23 24  2  0
 15 25  1  0
 25 26  2  0
 11  7  1  0
 26 12  1  0
 24 16  1  0
 24 19  1  0
  3 27  1  0
  4 28  1  0
  4 29  1  0
  8 30  1  0
  8 31  1  0
  9 32  1  0
  9 33  1  0
 10 34  1  0
 10 35  1  0
 11 36  1  0
 11 37  1  0
 13 38  1  0
 14 39  1  0
 17 40  1  0
 20 41  1  0
 21 42  1  0
 22 43  1  0
 23 44  1  0
 25 45  1  0
 26 46  1  0
M  END
>  <Energy>  (582) 
734.76813582527416

>  <compound_id>  (582) 
9275

>  <target_id>  (582) 
1

>  <reference_id>  (582) 
30

>  <inspiration_ids>  (582) 
[52, 30]

>  <energy_score>  (582) 
611.5097737300763

>  <distance_score>  (582) 
4.028701943413983

>  <path>  (582) 
/opt/xchem-fragalysis-2/maxwin/BulkDock/SCRATCH/511014/C9275-P30/C9275-P30.minimised.mol

>  <scratch_subdir>  (582) 
/opt/xchem-fragalysis-2/maxwin/BulkDock/SCRATCH/511014/C9275-P30

>  <fragmenstein_runtime>  (582) 
16.531118869781494

>  <fragmenstein_outcome>  (582) 
too moved

>  <fragmenstein_mode>  (582) 
expansion

>  <fragmenstein_error>  (582) 


$$$$
C9278-P52
     RDKit          3D

 56 59  0  0  0  0  0  0  0  0999 V2000
  -11.8507  -26.5068   17.5745 C   0  0  0  0  0  0  0  0  0  0  0  0
  -13.1060  -25.8027   18.3299 C   0  0  0  0  0  0  0  0  0  0  0  0
  -13.8886  -27.1132   18.5035 C   0  0  0  0  0  0  0  0  0  0  0  0
  -12.7920  -24.6309   19.8896 C   0  0  0  0  0  0  0  0  0  0  0  0
  -12.3506  -22.9642   20.5560 N   0  0  0  0  0  0  0  0  0  0  0  0
  -11.4825  -22.2293   21.8755 C   0  0  0  0  0  0  0  0  0  0  0  0
  -11.5055  -22.3976   23.5902 C   0  0  0  0  0  0  0  0  0  0  0  0
  -10.6865  -23.2070   24.4916 C   0  0  0  0  0  0  0  0  0  0  0  0
  -10.8803  -23.5503   25.9040 C   0  0  0  0  0  0  0  0  0  0  0  0
  -11.5016  -22.6442   26.6818 C   0  0  0  0  0  0  0  0  0  0  0  0
  -11.4385  -22.5101   28.1231 N   0  0  0  0  0  0  0  0  0  0  0  0
  -11.7942  -21.3576   28.7968 C   0  0  0  0  0  0  0  0  0  0  0  0
  -11.9126  -21.4718   30.0896 N   0  0  0  0  0  0  0  0  0  0  0  0
  -11.3504  -22.6733   30.3432 C   0  0  0  0  0  0  0  0  0  0  0  0
  -11.0536  -23.1925   31.6115 C   0  0  0  0  0  0  0  0  0  0  0  0
  -10.2887  -24.3413   31.6832 C   0  0  0  0  0  0  0  0  0  0  0  0
   -9.9074  -24.9783   30.5091 C   0  0  0  0  0  0  0  0  0  0  0  0
  -10.2795  -24.5401   29.2265 C   0  0  0  0  0  0  0  0  0  0  0  0
  -10.9857  -23.3397   29.1540 C   0  0  0  0  0  0  0  0  0  0  0  0
  -12.0039  -21.6359   25.8811 C   0  0  0  0  0  0  0  0  0  0  0  0
  -12.1547  -21.5495   24.4182 C   0  0  0  0  0  0  0  0  0  0  0  0
  -13.9897  -25.1136   17.2884 C   0  0  0  0  0  0  0  0  0  0  0  0
  -14.0797  -23.9575   17.5345 O   0  0  0  0  0  0  0  0  0  0  0  0
  -14.6302  -25.8953   16.2878 N   0  0  0  0  0  0  0  0  0  0  0  0
  -13.7917  -25.9274   15.0184 C   0  0  0  0  0  0  0  0  0  0  0  0
  -14.3903  -26.8640   13.9906 C   0  0  0  0  0  0  0  0  0  0  0  0
  -15.8301  -26.5609   14.2025 C   0  0  0  0  0  0  0  0  0  0  0  0
  -15.6992  -25.5359   15.3023 C   0  0  0  0  0  0  0  0  0  0  0  0
  -11.3190  -25.8717   16.8684 H   0  0  0  0  0  0  0  0  0  0  0  0
  -11.1384  -26.9465   18.2690 H   0  0  0  0  0  0  0  0  0  0  0  0
  -12.1552  -27.3567   16.9485 H   0  0  0  0  0  0  0  0  0  0  0  0
  -14.9136  -26.9690   18.8403 H   0  0  0  0  0  0  0  0  0  0  0  0
  -13.2656  -27.8448   19.0118 H   0  0  0  0  0  0  0  0  0  0  0  0
  -14.0667  -27.6658   17.5666 H   0  0  0  0  0  0  0  0  0  0  0  0
  -11.7861  -24.8569   20.1403 H   0  0  0  0  0  0  0  0  0  0  0  0
  -13.4417  -25.0576   20.6520 H   0  0  0  0  0  0  0  0  0  0  0  0
  -12.4564  -22.2512   19.8205 H   0  0  0  0  0  0  0  0  0  0  0  0
  -11.8325  -21.2020   21.8172 H   0  0  0  0  0  0  0  0  0  0  0  0
  -10.4684  -22.0291   21.5134 H   0  0  0  0  0  0  0  0  0  0  0  0
   -9.6914  -23.4987   24.1649 H   0  0  0  0  0  0  0  0  0  0  0  0
  -10.3281  -24.3566   26.3418 H   0  0  0  0  0  0  0  0  0  0  0  0
  -11.9582  -20.4278   28.3004 H   0  0  0  0  0  0  0  0  0  0  0  0
  -11.3461  -22.6504   32.5053 H   0  0  0  0  0  0  0  0  0  0  0  0
   -9.9532  -24.7178   32.6464 H   0  0  0  0  0  0  0  0  0  0  0  0
   -9.2551  -25.8302   30.6076 H   0  0  0  0  0  0  0  0  0  0  0  0
   -9.9462  -25.0809   28.3518 H   0  0  0  0  0  0  0  0  0  0  0  0
  -12.0404  -20.6709   26.3461 H   0  0  0  0  0  0  0  0  0  0  0  0
  -12.5239  -20.6216   24.0326 H   0  0  0  0  0  0  0  0  0  0  0  0
  -12.7932  -26.2960   15.2532 H   0  0  0  0  0  0  0  0  0  0  0  0
  -13.6165  -24.9160   14.6147 H   0  0  0  0  0  0  0  0  0  0  0  0
  -14.0393  -26.6474   12.9778 H   0  0  0  0  0  0  0  0  0  0  0  0
  -14.1697  -27.9111   14.2240 H   0  0  0  0  0  0  0  0  0  0  0  0
  -16.3743  -27.4495   14.5398 H   0  0  0  0  0  0  0  0  0  0  0  0
  -16.3303  -26.1578   13.3177 H   0  0  0  0  0  0  0  0  0  0  0  0
  -15.5971  -24.4985   14.9427 H   0  0  0  0  0  0  0  0  0  0  0  0
  -16.6298  -25.5150   15.8850 H   0  0  0  0  0  0  0  0  0  0  0  0
  1  2  1  0
  2  3  1  0
  2  4  1  0
  4  5  1  0
  5  6  1  0
  6  7  1  0
  7  8  2  0
  8  9  1  0
  9 10  2  0
 10 11  1  0
 11 12  1  0
 12 13  2  0
 13 14  1  0
 14 15  2  0
 15 16  1  0
 16 17  2  0
 17 18  1  0
 18 19  2  0
 10 20  1  0
 20 21  2  0
  2 22  1  0
 22 23  2  0
 22 24  1  0
 24 25  1  0
 25 26  1  0
 26 27  1  0
 27 28  1  0
 21  7  1  0
 28 24  1  0
 19 11  1  0
 19 14  1  0
  1 29  1  0
  1 30  1  0
  1 31  1  0
  3 32  1  0
  3 33  1  0
  3 34  1  0
  4 35  1  0
  4 36  1  0
  5 37  1  0
  6 38  1  0
  6 39  1  0
  8 40  1  0
  9 41  1  0
 12 42  1  0
 15 43  1  0
 16 44  1  0
 17 45  1  0
 18 46  1  0
 20 47  1  0
 21 48  1  0
 25 49  1  0
 25 50  1  0
 26 51  1  0
 26 52  1  0
 27 53  1  0
 27 54  1  0
 28 55  1  0
 28 56  1  0
M  END
>  <Energy>  (583) 
421.33301430333682

>  <compound_id>  (583) 
9278

>  <target_id>  (583) 
1

>  <reference_id>  (583) 
52

>  <inspiration_ids>  (583) 
[52, 30]

>  <energy_score>  (583) 
294.6233581585206

>  <distance_score>  (583) 
3.6960057931474477

>  <path>  (583) 
/opt/xchem-fragalysis-2/maxwin/BulkDock/SCRATCH/511014/C9278-P52/C9278-P52.minimised.mol

>  <scratch_subdir>  (583) 
/opt/xchem-fragalysis-2/maxwin/BulkDock/SCRATCH/511014/C9278-P52

>  <fragmenstein_runtime>  (583) 
15.049906253814697

>  <fragmenstein_outcome>  (583) 
too moved

>  <fragmenstein_mode>  (583) 
expansion

>  <fragmenstein_error>  (583) 


$$$$
C9278-P30
     RDKit          3D

 56 59  0  0  0  0  0  0  0  0999 V2000
  -14.5257  -26.6980   19.1812 C   0  0  0  0  0  0  0  0  0  0  0  0
  -13.6216  -25.5277   18.7610 C   0  0  0  0  0  0  0  0  0  0  0  0
  -14.4797  -24.7055   17.7504 C   0  0  0  0  0  0  0  0  0  0  0  0
  -12.7716  -24.5000   20.1307 C   0  0  0  0  0  0  0  0  0  0  0  0
  -12.6524  -22.9725   20.9839 N   0  0  0  0  0  0  0  0  0  0  0  0
  -12.2667  -22.3820   22.3371 C   0  0  0  0  0  0  0  0  0  0  0  0
  -12.9023  -22.4673   23.8364 C   0  0  0  0  0  0  0  0  0  0  0  0
  -13.3990  -23.4974   24.7005 C   0  0  0  0  0  0  0  0  0  0  0  0
  -12.9347  -23.6930   26.1331 C   0  0  0  0  0  0  0  0  0  0  0  0
  -12.2890  -22.6911   26.8170 C   0  0  0  0  0  0  0  0  0  0  0  0
  -11.8681  -22.4000   28.1939 N   0  0  0  0  0  0  0  0  0  0  0  0
  -12.2382  -21.2554   28.8713 C   0  0  0  0  0  0  0  0  0  0  0  0
  -11.8625  -20.9982   30.0869 N   0  0  0  0  0  0  0  0  0  0  0  0
  -11.3677  -22.1770   30.3954 C   0  0  0  0  0  0  0  0  0  0  0  0
  -11.0041  -22.8082   32.0049 C   0  0  0  0  0  0  0  0  0  0  0  0
  -10.0283  -23.7394   32.3762 C   0  0  0  0  0  0  0  0  0  0  0  0
   -9.6249  -24.2343   31.1736 C   0  0  0  0  0  0  0  0  0  0  0  0
  -10.2094  -24.0624   29.3885 C   0  0  0  0  0  0  0  0  0  0  0  0
  -11.0395  -22.9130   29.1408 C   0  0  0  0  0  0  0  0  0  0  0  0
  -12.1413  -21.6289   25.9804 C   0  0  0  0  0  0  0  0  0  0  0  0
  -12.3727  -21.4646   24.5890 C   0  0  0  0  0  0  0  0  0  0  0  0
  -12.5464  -26.3935   17.8140 C   0  0  0  0  0  0  0  0  0  0  0  0
  -11.7903  -27.1106   18.4009 O   0  0  0  0  0  0  0  0  0  0  0  0
  -12.6260  -26.0749   16.4273 N   0  0  0  0  0  0  0  0  0  0  0  0
  -13.5552  -27.0457   15.7112 C   0  0  0  0  0  0  0  0  0  0  0  0
  -13.7687  -26.6109   14.2753 C   0  0  0  0  0  0  0  0  0  0  0  0
  -12.3868  -26.1561   13.9533 C   0  0  0  0  0  0  0  0  0  0  0  0
  -11.7281  -26.4442   15.2829 C   0  0  0  0  0  0  0  0  0  0  0  0
  -15.0935  -27.0853   18.3255 H   0  0  0  0  0  0  0  0  0  0  0  0
  -15.2869  -26.4865   19.9163 H   0  0  0  0  0  0  0  0  0  0  0  0
  -13.9258  -27.5483   19.4859 H   0  0  0  0  0  0  0  0  0  0  0  0
  -15.3825  -24.2640   18.1342 H   0  0  0  0  0  0  0  0  0  0  0  0
  -14.8968  -25.3048   16.9424 H   0  0  0  0  0  0  0  0  0  0  0  0
  -13.8932  -23.9418   17.2644 H   0  0  0  0  0  0  0  0  0  0  0  0
  -11.7360  -24.7550   20.2140 H   0  0  0  0  0  0  0  0  0  0  0  0
  -12.8374  -23.8043   19.3408 H   0  0  0  0  0  0  0  0  0  0  0  0
  -12.3426  -22.2697   20.2990 H   0  0  0  0  0  0  0  0  0  0  0  0
  -12.2858  -21.3116   22.1317 H   0  0  0  0  0  0  0  0  0  0  0  0
  -11.1935  -22.4476   22.4792 H   0  0  0  0  0  0  0  0  0  0  0  0
  -13.9408  -24.3428   24.2808 H   0  0  0  0  0  0  0  0  0  0  0  0
  -13.1393  -24.6395   26.6124 H   0  0  0  0  0  0  0  0  0  0  0  0
  -12.8104  -20.5515   28.3872 H   0  0  0  0  0  0  0  0  0  0  0  0
  -11.4672  -23.7650   31.9224 H   0  0  0  0  0  0  0  0  0  0  0  0
   -9.3141  -23.7324   33.1373 H   0  0  0  0  0  0  0  0  0  0  0  0
   -8.7488  -24.9461   31.3162 H   0  0  0  0  0  0  0  0  0  0  0  0
   -9.8404  -24.6760   28.5823 H   0  0  0  0  0  0  0  0  0  0  0  0
  -11.5663  -20.8801   26.4289 H   0  0  0  0  0  0  0  0  0  0  0  0
  -11.9342  -20.5875   24.1271 H   0  0  0  0  0  0  0  0  0  0  0  0
  -14.5233  -27.0809   16.2169 H   0  0  0  0  0  0  0  0  0  0  0  0
  -13.2029  -28.0888   15.8110 H   0  0  0  0  0  0  0  0  0  0  0  0
  -14.1192  -27.4307   13.6424 H   0  0  0  0  0  0  0  0  0  0  0  0
  -14.4813  -25.7820   14.2078 H   0  0  0  0  0  0  0  0  0  0  0  0
  -12.3691  -25.0877   13.7134 H   0  0  0  0  0  0  0  0  0  0  0  0
  -11.9218  -26.7088   13.1325 H   0  0  0  0  0  0  0  0  0  0  0  0
  -10.8455  -25.8008   15.3857 H   0  0  0  0  0  0  0  0  0  0  0  0
  -11.3159  -27.4620   15.3882 H   0  0  0  0  0  0  0  0  0  0  0  0
  1  2  1  0
  2  3  1  0
  2  4  1  0
  4  5  1  0
  5  6  1  0
  6  7  1  0
  7  8  2  0
  8  9  1  0
  9 10  2  0
 10 11  1  0
 11 12  1  0
 12 13  2  0
 13 14  1  0
 14 15  2  0
 15 16  1  0
 16 17  2  0
 17 18  1  0
 18 19  2  0
 10 20  1  0
 20 21  2  0
  2 22  1  0
 22 23  2  0
 22 24  1  0
 24 25  1  0
 25 26  1  0
 26 27  1  0
 27 28  1  0
 21  7  1  0
 28 24  1  0
 19 11  1  0
 19 14  1  0
  1 29  1  0
  1 30  1  0
  1 31  1  0
  3 32  1  0
  3 33  1  0
  3 34  1  0
  4 35  1  0
  4 36  1  0
  5 37  1  0
  6 38  1  0
  6 39  1  0
  8 40  1  0
  9 41  1  0
 12 42  1  0
 15 43  1  0
 16 44  1  0
 17 45  1  0
 18 46  1  0
 20 47  1  0
 21 48  1  0
 25 49  1  0
 25 50  1  0
 26 51  1  0
 26 52  1  0
 27 53  1  0
 27 54  1  0
 28 55  1  0
 28 56  1  0
M  END
>  <Energy>  (584) 
571.22629355246556

>  <compound_id>  (584) 
9278

>  <target_id>  (584) 
1

>  <reference_id>  (584) 
30

>  <inspiration_ids>  (584) 
[52, 30]

>  <energy_score>  (584) 
444.51663740764957

>  <distance_score>  (584) 
3.130698140919435

>  <path>  (584) 
/opt/xchem-fragalysis-2/maxwin/BulkDock/SCRATCH/511014/C9278-P30/C9278-P30.minimised.mol

>  <scratch_subdir>  (584) 
/opt/xchem-fragalysis-2/maxwin/BulkDock/SCRATCH/511014/C9278-P30

>  <fragmenstein_runtime>  (584) 
23.77717161178589

>  <fragmenstein_outcome>  (584) 
too moved

>  <fragmenstein_mode>  (584) 
expansion

>  <fragmenstein_error>  (584) 


$$$$
C7931-P66
     RDKit          3D

 46 48  0  0  0  0  0  0  0  0999 V2000
    5.7396    4.1557   21.3013 O   0  0  0  0  0  0  0  0  0  0  0  0
    6.0261    3.0204   21.3646 C   0  0  0  0  0  0  0  0  0  0  0  0
    7.3904    2.3773   20.9286 N   0  0  0  0  0  0  0  0  0  0  0  0
    8.6158    2.9823   20.4579 C   0  0  0  0  0  0  0  0  0  0  0  0
    9.9272    2.5271   21.1084 C   0  0  0  0  0  0  0  0  0  0  0  0
   11.1318    3.1248   20.3485 C   0  0  0  0  0  0  0  0  0  0  0  0
   12.5214    2.9335   20.9758 C   0  0  0  0  0  0  0  0  0  0  0  0
   13.6315    3.3034   19.9770 C   0  0  0  0  0  0  0  0  0  0  0  0
   14.6280    2.1544   20.0191 C   0  0  0  0  0  0  0  0  0  0  0  0
   14.2781    1.4105   21.2908 C   0  0  0  0  0  0  0  0  0  0  0  0
   12.8313    1.5660   21.3816 N   0  0  0  0  0  0  0  0  0  0  0  0
    4.8983    1.4899   22.2028 N   0  0  0  0  0  0  0  0  0  0  0  0
    4.0119    0.7652   21.5079 C   0  0  0  0  0  0  0  0  0  0  0  0
    2.5091    1.7528   21.2098 C   0  0  0  0  0  0  0  0  0  0  0  0
    2.3162    2.6436   22.3213 C   0  0  0  0  0  0  0  0  0  0  0  0
    3.1528    1.7328   23.1953 C   0  0  0  0  0  0  0  0  0  0  0  0
    2.7244    2.9064   24.5759 C   0  0  0  0  0  0  0  0  0  0  0  0
    2.3143    2.4444   25.8933 C   0  0  0  0  0  0  0  0  0  0  0  0
    2.0114    3.4724   26.7573 C   0  0  0  0  0  0  0  0  0  0  0  0
    2.2190    5.0017   26.0353 S   0  0  0  0  0  0  0  0  0  0  0  0
    2.7210    4.3029   24.5574 C   0  0  0  0  0  0  0  0  0  0  0  0
    7.3237    1.4144   21.0126 H   0  0  0  0  0  0  0  0  0  0  0  0
    8.5048    4.0538   20.6721 H   0  0  0  0  0  0  0  0  0  0  0  0
    8.6002    2.9371   19.3748 H   0  0  0  0  0  0  0  0  0  0  0  0
    9.9583    1.4371   21.1488 H   0  0  0  0  0  0  0  0  0  0  0  0
    9.9452    2.8695   22.1505 H   0  0  0  0  0  0  0  0  0  0  0  0
   11.1325    2.7466   19.3239 H   0  0  0  0  0  0  0  0  0  0  0  0
   10.9695    4.2073   20.2497 H   0  0  0  0  0  0  0  0  0  0  0  0
   12.6026    3.5856   21.8553 H   0  0  0  0  0  0  0  0  0  0  0  0
   13.2711    3.4538   18.9537 H   0  0  0  0  0  0  0  0  0  0  0  0
   14.1181    4.2333   20.2945 H   0  0  0  0  0  0  0  0  0  0  0  0
   15.6628    2.5105   20.0212 H   0  0  0  0  0  0  0  0  0  0  0  0
   14.5001    1.5157   19.1385 H   0  0  0  0  0  0  0  0  0  0  0  0
   14.7648    1.8743   22.1567 H   0  0  0  0  0  0  0  0  0  0  0  0
   14.5731    0.3584   21.2486 H   0  0  0  0  0  0  0  0  0  0  0  0
   12.5006    1.3645   22.3247 H   0  0  0  0  0  0  0  0  0  0  0  0
    4.1378   -0.2632   21.8087 H   0  0  0  0  0  0  0  0  0  0  0  0
    4.8209    0.4802   20.9231 H   0  0  0  0  0  0  0  0  0  0  0  0
    2.3660    2.3505   20.3037 H   0  0  0  0  0  0  0  0  0  0  0  0
    1.7304    1.0969   21.2217 H   0  0  0  0  0  0  0  0  0  0  0  0
    2.7553    3.6274   22.1167 H   0  0  0  0  0  0  0  0  0  0  0  0
    1.2759    2.8749   22.5713 H   0  0  0  0  0  0  0  0  0  0  0  0
    3.0633    1.0677   24.0979 H   0  0  0  0  0  0  0  0  0  0  0  0
    2.2711    1.4049   26.1915 H   0  0  0  0  0  0  0  0  0  0  0  0
    1.6867    3.3990   27.7858 H   0  0  0  0  0  0  0  0  0  0  0  0
    2.9960    4.9645   23.7465 H   0  0  0  0  0  0  0  0  0  0  0  0
  1  2  2  0
  2  3  1  0
  3  4  1  0
  4  5  1  0
  5  6  1  0
  6  7  1  0
  7  8  1  0
  8  9  1  0
  9 10  1  0
 10 11  1  0
  2 12  1  0
 12 13  1  0
 13 14  1  0
 14 15  1  0
 15 16  1  0
 16 17  1  0
 17 18  1  0
 18 19  2  0
 19 20  1  0
 20 21  1  0
 11  7  1  0
 16 12  1  0
 21 17  2  0
  3 22  1  0
  4 23  1  0
  4 24  1  0
  5 25  1  0
  5 26  1  0
  6 27  1  0
  6 28  1  0
  7 29  1  0
  8 30  1  0
  8 31  1  0
  9 32  1  0
  9 33  1  0
 10 34  1  0
 10 35  1  0
 11 36  1  0
 13 37  1  0
 13 38  1  0
 14 39  1  0
 14 40  1  0
 15 41  1  0
 15 42  1  0
 16 43  1  0
 18 44  1  0
 19 45  1  0
 21 46  1  0
M  END
>  <Energy>  (585) 
410.09533687071445

>  <compound_id>  (585) 
7931

>  <target_id>  (585) 
1

>  <reference_id>  (585) 
66

>  <inspiration_ids>  (585) 
[66, 53]

>  <energy_score>  (585) 
415.55276640455236

>  <distance_score>  (585) 
6.2082958161081105

>  <path>  (585) 
/opt/xchem-fragalysis-2/maxwin/BulkDock/SCRATCH/511014/C7931-P66/C7931-P66.minimised.mol

>  <scratch_subdir>  (585) 
/opt/xchem-fragalysis-2/maxwin/BulkDock/SCRATCH/511014/C7931-P66

>  <fragmenstein_runtime>  (585) 
8.801156997680664

>  <fragmenstein_outcome>  (585) 
too moved

>  <fragmenstein_mode>  (585) 
expansion

>  <fragmenstein_error>  (585) 


$$$$
C7931-P53
     RDKit          3D

 46 48  0  0  0  0  0  0  0  0999 V2000
    9.2688    0.6250   26.3783 O   0  0  0  0  0  0  0  0  0  0  0  0
    9.0040   -0.4865   26.6664 C   0  0  0  0  0  0  0  0  0  0  0  0
    9.8233   -1.7202   26.5854 N   0  0  0  0  0  0  0  0  0  0  0  0
   11.2355   -1.9147   26.2173 C   0  0  0  0  0  0  0  0  0  0  0  0
   11.5742   -2.1112   24.7203 C   0  0  0  0  0  0  0  0  0  0  0  0
   13.0198   -2.6324   24.4553 C   0  0  0  0  0  0  0  0  0  0  0  0
   13.4183   -2.9001   22.9821 C   0  0  0  0  0  0  0  0  0  0  0  0
   14.8332   -3.4382   22.8081 C   0  0  0  0  0  0  0  0  0  0  0  0
   14.8280   -3.9430   21.3731 C   0  0  0  0  0  0  0  0  0  0  0  0
   13.3856   -4.3495   21.1191 C   0  0  0  0  0  0  0  0  0  0  0  0
   12.6212   -3.9474   22.3105 N   0  0  0  0  0  0  0  0  0  0  0  0
    7.7790   -1.0486   27.3136 N   0  0  0  0  0  0  0  0  0  0  0  0
    6.7764   -1.4521   26.2703 C   0  0  0  0  0  0  0  0  0  0  0  0
    5.5264   -2.0958   26.8555 C   0  0  0  0  0  0  0  0  0  0  0  0
    5.4351   -1.3589   28.1478 C   0  0  0  0  0  0  0  0  0  0  0  0
    6.5383   -0.3365   27.9060 C   0  0  0  0  0  0  0  0  0  0  0  0
    6.0427    1.0079   27.3248 C   0  0  0  0  0  0  0  0  0  0  0  0
    6.7465    2.2537   27.4635 C   0  0  0  0  0  0  0  0  0  0  0  0
    6.0522    3.3356   26.9668 C   0  0  0  0  0  0  0  0  0  0  0  0
    4.5439    2.8821   26.3188 S   0  0  0  0  0  0  0  0  0  0  0  0
    4.8203    1.2398   26.7018 C   0  0  0  0  0  0  0  0  0  0  0  0
    9.2526   -2.5155   26.8386 H   0  0  0  0  0  0  0  0  0  0  0  0
   11.5683   -2.7908   26.7842 H   0  0  0  0  0  0  0  0  0  0  0  0
   11.7838   -1.0438   26.5932 H   0  0  0  0  0  0  0  0  0  0  0  0
   10.8641   -2.8194   24.2906 H   0  0  0  0  0  0  0  0  0  0  0  0
   11.4378   -1.1348   24.2533 H   0  0  0  0  0  0  0  0  0  0  0  0
   13.7268   -1.9070   24.8781 H   0  0  0  0  0  0  0  0  0  0  0  0
   13.1557   -3.5580   25.0304 H   0  0  0  0  0  0  0  0  0  0  0  0
   13.3878   -1.9611   22.4254 H   0  0  0  0  0  0  0  0  0  0  0  0
   15.5974   -2.6711   22.9678 H   0  0  0  0  0  0  0  0  0  0  0  0
   15.0313   -4.2668   23.4996 H   0  0  0  0  0  0  0  0  0  0  0  0
   15.5271   -4.7737   21.2368 H   0  0  0  0  0  0  0  0  0  0  0  0
   15.1177   -3.1356   20.6903 H   0  0  0  0  0  0  0  0  0  0  0  0
   13.2944   -5.4288   20.9595 H   0  0  0  0  0  0  0  0  0  0  0  0
   13.0071   -3.8511   20.2248 H   0  0  0  0  0  0  0  0  0  0  0  0
   12.5536   -4.7465   22.9389 H   0  0  0  0  0  0  0  0  0  0  0  0
    7.2734   -2.2021   25.6522 H   0  0  0  0  0  0  0  0  0  0  0  0
    6.5586   -0.6439   25.5680 H   0  0  0  0  0  0  0  0  0  0  0  0
    4.6589   -1.9556   26.2041 H   0  0  0  0  0  0  0  0  0  0  0  0
    5.6631   -3.1693   27.0232 H   0  0  0  0  0  0  0  0  0  0  0  0
    5.7030   -2.0250   28.9769 H   0  0  0  0  0  0  0  0  0  0  0  0
    4.4450   -0.9445   28.3548 H   0  0  0  0  0  0  0  0  0  0  0  0
    6.9045   -0.0468   28.9038 H   0  0  0  0  0  0  0  0  0  0  0  0
    7.7289    2.3449   27.9145 H   0  0  0  0  0  0  0  0  0  0  0  0
    6.3681    4.3697   26.9523 H   0  0  0  0  0  0  0  0  0  0  0  0
    4.0498    0.5231   26.4544 H   0  0  0  0  0  0  0  0  0  0  0  0
  1  2  2  0
  2  3  1  0
  3  4  1  0
  4  5  1  0
  5  6  1  0
  6  7  1  0
  7  8  1  0
  8  9  1  0
  9 10  1  0
 10 11  1  0
  2 12  1  0
 12 13  1  0
 13 14  1  0
 14 15  1  0
 15 16  1  0
 16 17  1  0
 17 18  1  0
 18 19  2  0
 19 20  1  0
 20 21  1  0
 11  7  1  0
 16 12  1  0
 21 17  2  0
  3 22  1  0
  4 23  1  0
  4 24  1  0
  5 25  1  0
  5 26  1  0
  6 27  1  0
  6 28  1  0
  7 29  1  0
  8 30  1  0
  8 31  1  0
  9 32  1  0
  9 33  1  0
 10 34  1  0
 10 35  1  0
 11 36  1  0
 13 37  1  0
 13 38  1  0
 14 39  1  0
 14 40  1  0
 15 41  1  0
 15 42  1  0
 16 43  1  0
 18 44  1  0
 19 45  1  0
 21 46  1  0
M  END
>  <Energy>  (586) 
12.317746443168199

>  <compound_id>  (586) 
7931

>  <target_id>  (586) 
1

>  <reference_id>  (586) 
53

>  <inspiration_ids>  (586) 
[66, 53]

>  <energy_score>  (586) 
17.775175977004267

>  <distance_score>  (586) 
7.597521817494544

>  <path>  (586) 
/opt/xchem-fragalysis-2/maxwin/BulkDock/SCRATCH/511014/C7931-P53/C7931-P53.minimised.mol

>  <scratch_subdir>  (586) 
/opt/xchem-fragalysis-2/maxwin/BulkDock/SCRATCH/511014/C7931-P53

>  <fragmenstein_runtime>  (586) 
17.708027839660645

>  <fragmenstein_outcome>  (586) 
too moved

>  <fragmenstein_mode>  (586) 
expansion

>  <fragmenstein_error>  (586) 


$$$$
C7933-P66
     RDKit          3D

 44 46  0  0  0  0  0  0  0  0999 V2000
   10.5470    4.4272   22.2153 O   0  0  0  0  0  0  0  0  0  0  0  0
   10.8752    3.4682   22.8541 C   0  0  0  0  0  0  0  0  0  0  0  0
   10.3359    2.9214   24.0620 N   0  0  0  0  0  0  0  0  0  0  0  0
    9.1765    3.2930   24.8341 C   0  0  0  0  0  0  0  0  0  0  0  0
    9.3980    4.3928   25.8661 C   0  0  0  0  0  0  0  0  0  0  0  0
    8.3052    4.4274   26.9593 C   0  0  0  0  0  0  0  0  0  0  0  0
    6.8544    4.4988   26.4689 C   0  0  0  0  0  0  0  0  0  0  0  0
    6.5030    5.7508   25.6816 C   0  0  0  0  0  0  0  0  0  0  0  0
    4.9911    5.8789   25.8386 C   0  0  0  0  0  0  0  0  0  0  0  0
    4.6260    4.9586   26.9959 C   0  0  0  0  0  0  0  0  0  0  0  0
    5.9056    4.5682   27.5867 N   0  0  0  0  0  0  0  0  0  0  0  0
   12.0225    2.6274   22.3017 C   0  0  0  0  0  0  0  0  0  0  0  0
   12.7089    3.0896   21.2349 C   0  0  0  0  0  0  0  0  0  0  0  0
   13.8391    2.3801   20.6691 C   0  0  0  0  0  0  0  0  0  0  0  0
   14.2296    1.2036   21.1873 C   0  0  0  0  0  0  0  0  0  0  0  0
   15.3562    0.4824   20.6671 C   0  0  0  0  0  0  0  0  0  0  0  0
   16.3900    0.9138   19.8441 C   0  0  0  0  0  0  0  0  0  0  0  0
   17.3333   -0.1064   19.5250 C   0  0  0  0  0  0  0  0  0  0  0  0
   17.0091   -1.3043   20.1126 C   0  0  0  0  0  0  0  0  0  0  0  0
   15.5847   -1.1951   21.0420 S   0  0  0  0  0  0  0  0  0  0  0  0
   13.5086    0.6812   22.2337 N   0  0  0  0  0  0  0  0  0  0  0  0
   12.4335    1.2894   22.8299 C   0  0  0  0  0  0  0  0  0  0  0  0
   11.8405    0.7695   23.7730 O   0  0  0  0  0  0  0  0  0  0  0  0
   10.8179    2.0455   24.2751 H   0  0  0  0  0  0  0  0  0  0  0  0
    8.4238    3.6337   24.1181 H   0  0  0  0  0  0  0  0  0  0  0  0
    8.8322    2.3763   25.3227 H   0  0  0  0  0  0  0  0  0  0  0  0
    9.4531    5.3643   25.3605 H   0  0  0  0  0  0  0  0  0  0  0  0
   10.3677    4.2472   26.3584 H   0  0  0  0  0  0  0  0  0  0  0  0
    8.4198    3.5291   27.5810 H   0  0  0  0  0  0  0  0  0  0  0  0
    8.5162    5.2800   27.6183 H   0  0  0  0  0  0  0  0  0  0  0  0
    6.6203    3.6080   25.8807 H   0  0  0  0  0  0  0  0  0  0  0  0
    6.9930    6.6368   26.1044 H   0  0  0  0  0  0  0  0  0  0  0  0
    6.7942    5.6763   24.6291 H   0  0  0  0  0  0  0  0  0  0  0  0
    4.4765    5.5666   24.9232 H   0  0  0  0  0  0  0  0  0  0  0  0
    4.7146    6.9185   26.0441 H   0  0  0  0  0  0  0  0  0  0  0  0
    3.9875    5.4584   27.7300 H   0  0  0  0  0  0  0  0  0  0  0  0
    4.0936    4.0754   26.6246 H   0  0  0  0  0  0  0  0  0  0  0  0
    5.8289    3.6703   28.0618 H   0  0  0  0  0  0  0  0  0  0  0  0
   12.4553    4.0442   20.7791 H   0  0  0  0  0  0  0  0  0  0  0  0
   14.3411    2.8533   19.8319 H   0  0  0  0  0  0  0  0  0  0  0  0
   16.4801    1.9308   19.4823 H   0  0  0  0  0  0  0  0  0  0  0  0
   18.2062    0.0352   18.8994 H   0  0  0  0  0  0  0  0  0  0  0  0
   17.5439   -2.2420   20.0454 H   0  0  0  0  0  0  0  0  0  0  0  0
   13.7327   -0.2500   22.5751 H   0  0  0  0  0  0  0  0  0  0  0  0
  1  2  2  0
  2  3  1  0
  3  4  1  0
  4  5  1  0
  5  6  1  0
  6  7  1  0
  7  8  1  0
  8  9  1  0
  9 10  1  0
 10 11  1  0
  2 12  1  0
 12 13  2  0
 13 14  1  0
 14 15  2  0
 15 16  1  0
 16 17  2  0
 17 18  1  0
 18 19  2  0
 19 20  1  0
 15 21  1  0
 21 22  1  0
 22 23  2  0
 11  7  1  0
 22 12  1  0
 20 16  1  0
  3 24  1  0
  4 25  1  0
  4 26  1  0
  5 27  1  0
  5 28  1  0
  6 29  1  0
  6 30  1  0
  7 31  1  0
  8 32  1  0
  8 33  1  0
  9 34  1  0
  9 35  1  0
 10 36  1  0
 10 37  1  0
 11 38  1  0
 13 39  1  0
 14 40  1  0
 17 41  1  0
 18 42  1  0
 19 43  1  0
 21 44  1  0
M  END
>  <Energy>  (587) 
-13.688618260427642

>  <compound_id>  (587) 
7933

>  <target_id>  (587) 
1

>  <reference_id>  (587) 
66

>  <inspiration_ids>  (587) 
[66, 53]

>  <energy_score>  (587) 
-51.129104669105516

>  <distance_score>  (587) 
6.017912204185199

>  <path>  (587) 
/opt/xchem-fragalysis-2/maxwin/BulkDock/SCRATCH/511014/C7933-P66/C7933-P66.minimised.mol

>  <scratch_subdir>  (587) 
/opt/xchem-fragalysis-2/maxwin/BulkDock/SCRATCH/511014/C7933-P66

>  <fragmenstein_runtime>  (587) 
6.139728784561157

>  <fragmenstein_outcome>  (587) 
too moved

>  <fragmenstein_mode>  (587) 
expansion

>  <fragmenstein_error>  (587) 


$$$$
C7933-P53
     RDKit          3D

 44 46  0  0  0  0  0  0  0  0999 V2000
   12.5918    3.5080   23.0240 O   0  0  0  0  0  0  0  0  0  0  0  0
   12.5177    2.3986   23.4049 C   0  0  0  0  0  0  0  0  0  0  0  0
   11.7831    1.8012   24.6574 N   0  0  0  0  0  0  0  0  0  0  0  0
   11.0481    2.4887   25.7820 C   0  0  0  0  0  0  0  0  0  0  0  0
    9.5097    2.7460   25.6129 C   0  0  0  0  0  0  0  0  0  0  0  0
    8.5982    3.1627   26.8763 C   0  0  0  0  0  0  0  0  0  0  0  0
    7.0550    3.4251   26.6379 C   0  0  0  0  0  0  0  0  0  0  0  0
    6.7104    4.8009   26.0574 C   0  0  0  0  0  0  0  0  0  0  0  0
    5.2210    4.9942   26.3445 C   0  0  0  0  0  0  0  0  0  0  0  0
    4.9081    3.9877   27.4417 C   0  0  0  0  0  0  0  0  0  0  0  0
    6.2153    3.4427   27.8627 N   0  0  0  0  0  0  0  0  0  0  0  0
   13.2958    1.3176   22.5585 C   0  0  0  0  0  0  0  0  0  0  0  0
   13.8423    1.6598   21.3565 C   0  0  0  0  0  0  0  0  0  0  0  0
   14.5252    0.7155   20.4629 C   0  0  0  0  0  0  0  0  0  0  0  0
   14.6231   -0.5797   20.8048 C   0  0  0  0  0  0  0  0  0  0  0  0
   15.2093   -1.5820   19.9697 C   0  0  0  0  0  0  0  0  0  0  0  0
   14.8519   -2.9199   19.8530 C   0  0  0  0  0  0  0  0  0  0  0  0
   15.6307   -3.6381   18.9003 C   0  0  0  0  0  0  0  0  0  0  0  0
   16.5916   -2.8421   18.3253 C   0  0  0  0  0  0  0  0  0  0  0  0
   16.5444   -1.2451   18.9250 S   0  0  0  0  0  0  0  0  0  0  0  0
   14.1695   -0.9432   22.0512 N   0  0  0  0  0  0  0  0  0  0  0  0
   13.5589   -0.1024   22.9609 C   0  0  0  0  0  0  0  0  0  0  0  0
   13.2681   -0.4955   24.0914 O   0  0  0  0  0  0  0  0  0  0  0  0
   11.8554    0.7812   24.6423 H   0  0  0  0  0  0  0  0  0  0  0  0
   11.5498    3.4490   25.9396 H   0  0  0  0  0  0  0  0  0  0  0  0
   11.2116    1.8634   26.6655 H   0  0  0  0  0  0  0  0  0  0  0  0
    9.4082    3.5195   24.8442 H   0  0  0  0  0  0  0  0  0  0  0  0
    9.1082    1.8046   25.2384 H   0  0  0  0  0  0  0  0  0  0  0  0
    9.0486    4.0495   27.3385 H   0  0  0  0  0  0  0  0  0  0  0  0
    8.6944    2.3468   27.6043 H   0  0  0  0  0  0  0  0  0  0  0  0
    6.6570    2.6132   26.0223 H   0  0  0  0  0  0  0  0  0  0  0  0
    7.2813    5.5853   26.5713 H   0  0  0  0  0  0  0  0  0  0  0  0
    6.9333    4.8886   24.9916 H   0  0  0  0  0  0  0  0  0  0  0  0
    4.6198    4.7894   25.4527 H   0  0  0  0  0  0  0  0  0  0  0  0
    5.0215    6.0226   26.6628 H   0  0  0  0  0  0  0  0  0  0  0  0
    4.3834    4.4459   28.2856 H   0  0  0  0  0  0  0  0  0  0  0  0
    4.2811    3.1767   27.0546 H   0  0  0  0  0  0  0  0  0  0  0  0
    6.6361    4.0859   28.5346 H   0  0  0  0  0  0  0  0  0  0  0  0
   13.7353    2.6771   20.9845 H   0  0  0  0  0  0  0  0  0  0  0  0
   14.9012    1.1113   19.5254 H   0  0  0  0  0  0  0  0  0  0  0  0
   14.0356   -3.3686   20.4085 H   0  0  0  0  0  0  0  0  0  0  0  0
   15.4868   -4.6838   18.6501 H   0  0  0  0  0  0  0  0  0  0  0  0
   17.3205   -3.1227   17.5774 H   0  0  0  0  0  0  0  0  0  0  0  0
   14.2754   -1.8976   22.3686 H   0  0  0  0  0  0  0  0  0  0  0  0
  1  2  2  0
  2  3  1  0
  3  4  1  0
  4  5  1  0
  5  6  1  0
  6  7  1  0
  7  8  1  0
  8  9  1  0
  9 10  1  0
 10 11  1  0
  2 12  1  0
 12 13  2  0
 13 14  1  0
 14 15  2  0
 15 16  1  0
 16 17  2  0
 17 18  1  0
 18 19  2  0
 19 20  1  0
 15 21  1  0
 21 22  1  0
 22 23  2  0
 11  7  1  0
 22 12  1  0
 20 16  1  0
  3 24  1  0
  4 25  1  0
  4 26  1  0
  5 27  1  0
  5 28  1  0
  6 29  1  0
  6 30  1  0
  7 31  1  0
  8 32  1  0
  8 33  1  0
  9 34  1  0
  9 35  1  0
 10 36  1  0
 10 37  1  0
 11 38  1  0
 13 39  1  0
 14 40  1  0
 17 41  1  0
 18 42  1  0
 19 43  1  0
 21 44  1  0
M  END
>  <Energy>  (588) 
16.470772014290333

>  <compound_id>  (588) 
7933

>  <target_id>  (588) 
1

>  <reference_id>  (588) 
53

>  <inspiration_ids>  (588) 
[66, 53]

>  <energy_score>  (588) 
-17.9468984976443

>  <distance_score>  (588) 
5.607999299573549

>  <path>  (588) 
/opt/xchem-fragalysis-2/maxwin/BulkDock/SCRATCH/511014/C7933-P53/C7933-P53.minimised.mol

>  <scratch_subdir>  (588) 
/opt/xchem-fragalysis-2/maxwin/BulkDock/SCRATCH/511014/C7933-P53

>  <fragmenstein_runtime>  (588) 
5.690754175186157

>  <fragmenstein_outcome>  (588) 
too moved

>  <fragmenstein_mode>  (588) 
expansion

>  <fragmenstein_error>  (588) 


$$$$
C7936-P66
     RDKit          3D

 39 40  0  0  0  0  0  0  0  0999 V2000
   16.5509    0.9329   19.5377 C   0  0  0  0  0  0  0  0  0  0  0  0
   15.0856    1.0062   19.6282 N   0  0  0  0  0  0  0  0  0  0  0  0
   14.7219    1.5251   20.9458 C   0  0  0  0  0  0  0  0  0  0  0  0
   14.5059    1.7456   18.4862 C   0  0  0  0  0  0  0  0  0  0  0  0
   13.3497    2.9788   18.8226 C   0  0  0  0  0  0  0  0  0  0  0  0
   12.1341    2.9528   19.7676 N   0  0  0  0  0  0  0  0  0  0  0  0
   11.7423    3.9198   20.9775 C   0  0  0  0  0  0  0  0  0  0  0  0
   12.3384    4.8184   21.4612 O   0  0  0  0  0  0  0  0  0  0  0  0
   10.2524    3.5226   21.6421 C   0  0  0  0  0  0  0  0  0  0  0  0
    9.0295    4.4057   21.2742 C   0  0  0  0  0  0  0  0  0  0  0  0
    8.2800    4.8028   22.5594 C   0  0  0  0  0  0  0  0  0  0  0  0
    8.8967    3.9228   23.6125 C   0  0  0  0  0  0  0  0  0  0  0  0
   10.2745    3.7015   23.1496 N   0  0  0  0  0  0  0  0  0  0  0  0
   14.3020    0.7758   17.2212 C   0  0  0  0  0  0  0  0  0  0  0  0
   13.9098    1.0904   15.9210 C   0  0  0  0  0  0  0  0  0  0  0  0
   13.6654   -0.0589   15.0931 C   0  0  0  0  0  0  0  0  0  0  0  0
   13.9838   -1.2354   15.7281 C   0  0  0  0  0  0  0  0  0  0  0  0
   14.6218   -0.9533   17.2886 S   0  0  0  0  0  0  0  0  0  0  0  0
   16.9472    0.2568   20.3039 H   0  0  0  0  0  0  0  0  0  0  0  0
   17.0161    1.9164   19.6743 H   0  0  0  0  0  0  0  0  0  0  0  0
   16.8848    0.5352   18.5741 H   0  0  0  0  0  0  0  0  0  0  0  0
   15.0054    2.5753   21.0747 H   0  0  0  0  0  0  0  0  0  0  0  0
   13.6521    1.4103   21.1354 H   0  0  0  0  0  0  0  0  0  0  0  0
   15.2153    0.9466   21.7362 H   0  0  0  0  0  0  0  0  0  0  0  0
   15.3100    2.3947   18.0955 H   0  0  0  0  0  0  0  0  0  0  0  0
   12.9489    3.3097   17.8577 H   0  0  0  0  0  0  0  0  0  0  0  0
   13.9471    3.8135   19.2119 H   0  0  0  0  0  0  0  0  0  0  0  0
   11.3595    2.3432   19.5574 H   0  0  0  0  0  0  0  0  0  0  0  0
   10.0544    2.4675   21.4231 H   0  0  0  0  0  0  0  0  0  0  0  0
    8.3596    3.8360   20.6191 H   0  0  0  0  0  0  0  0  0  0  0  0
    9.3389    5.3009   20.7236 H   0  0  0  0  0  0  0  0  0  0  0  0
    8.4763    5.8588   22.7790 H   0  0  0  0  0  0  0  0  0  0  0  0
    7.1990    4.6676   22.4668 H   0  0  0  0  0  0  0  0  0  0  0  0
    8.8593    4.3556   24.6153 H   0  0  0  0  0  0  0  0  0  0  0  0
    8.4597    2.9359   23.6327 H   0  0  0  0  0  0  0  0  0  0  0  0
   10.8313    4.5461   23.3232 H   0  0  0  0  0  0  0  0  0  0  0  0
   13.7202    2.1065   15.5959 H   0  0  0  0  0  0  0  0  0  0  0  0
   13.2883   -0.0151   14.0782 H   0  0  0  0  0  0  0  0  0  0  0  0
   13.9164   -2.2429   15.3410 H   0  0  0  0  0  0  0  0  0  0  0  0
  1  2  1  0
  2  3  1  0
  2  4  1  0
  4  5  1  0
  5  6  1  0
  6  7  1  0
  7  8  2  0
  7  9  1  0
  9 10  1  0
 10 11  1  0
 11 12  1  0
 12 13  1  0
  4 14  1  0
 14 15  2  0
 15 16  1  0
 16 17  2  0
 17 18  1  0
 13  9  1  0
 18 14  1  0
  1 19  1  0
  1 20  1  0
  1 21  1  0
  3 22  1  0
  3 23  1  0
  3 24  1  0
  4 25  1  0
  5 26  1  0
  5 27  1  0
  6 28  1  0
  9 29  1  0
 10 30  1  0
 10 31  1  0
 11 32  1  0
 11 33  1  0
 12 34  1  0
 12 35  1  0
 13 36  1  0
 15 37  1  0
 16 38  1  0
 17 39  1  0
M  END
>  <Energy>  (589) 
129.25953234658195

>  <compound_id>  (589) 
7936

>  <target_id>  (589) 
1

>  <reference_id>  (589) 
66

>  <inspiration_ids>  (589) 
[66, 53]

>  <energy_score>  (589) 
5.5246812493934385

>  <distance_score>  (589) 
5.88467744203737

>  <path>  (589) 
/opt/xchem-fragalysis-2/maxwin/BulkDock/SCRATCH/511014/C7936-P66/C7936-P66.minimised.mol

>  <scratch_subdir>  (589) 
/opt/xchem-fragalysis-2/maxwin/BulkDock/SCRATCH/511014/C7936-P66

>  <fragmenstein_runtime>  (589) 
3.513655185699463

>  <fragmenstein_outcome>  (589) 
too moved

>  <fragmenstein_mode>  (589) 
expansion

>  <fragmenstein_error>  (589) 


$$$$
C7936-P53
     RDKit          3D

 39 40  0  0  0  0  0  0  0  0999 V2000
   15.2212    2.1008   20.1394 C   0  0  0  0  0  0  0  0  0  0  0  0
   15.4564    0.8582   19.4181 N   0  0  0  0  0  0  0  0  0  0  0  0
   16.8740    0.8344   19.0082 C   0  0  0  0  0  0  0  0  0  0  0  0
   15.1116   -0.3885   20.1629 C   0  0  0  0  0  0  0  0  0  0  0  0
   14.2446   -0.3127   21.6274 C   0  0  0  0  0  0  0  0  0  0  0  0
   13.3523    0.8067   22.2333 N   0  0  0  0  0  0  0  0  0  0  0  0
   12.5088    0.8389   23.5965 C   0  0  0  0  0  0  0  0  0  0  0  0
   12.3191   -0.0107   24.3998 O   0  0  0  0  0  0  0  0  0  0  0  0
   11.8117    2.3150   23.9338 C   0  0  0  0  0  0  0  0  0  0  0  0
   10.6418    2.8900   23.1321 C   0  0  0  0  0  0  0  0  0  0  0  0
    9.9457    3.8517   24.1095 C   0  0  0  0  0  0  0  0  0  0  0  0
    9.9017    3.0306   25.3785 C   0  0  0  0  0  0  0  0  0  0  0  0
   11.1784    2.2918   25.3387 N   0  0  0  0  0  0  0  0  0  0  0  0
   14.7801   -1.5549   19.0958 C   0  0  0  0  0  0  0  0  0  0  0  0
   14.8659   -1.5143   17.6897 C   0  0  0  0  0  0  0  0  0  0  0  0
   14.2625   -2.6301   17.0328 C   0  0  0  0  0  0  0  0  0  0  0  0
   13.9200   -3.6027   17.9380 C   0  0  0  0  0  0  0  0  0  0  0  0
   14.3791   -3.1728   19.5409 S   0  0  0  0  0  0  0  0  0  0  0  0
   15.6547    2.0977   21.1449 H   0  0  0  0  0  0  0  0  0  0  0  0
   15.6474    2.9556   19.5992 H   0  0  0  0  0  0  0  0  0  0  0  0
   14.1527    2.3155   20.1835 H   0  0  0  0  0  0  0  0  0  0  0  0
   17.5477    0.9128   19.8700 H   0  0  0  0  0  0  0  0  0  0  0  0
   17.1347   -0.0770   18.4614 H   0  0  0  0  0  0  0  0  0  0  0  0
   17.0861    1.6685   18.3293 H   0  0  0  0  0  0  0  0  0  0  0  0
   16.0666   -0.7735   20.5635 H   0  0  0  0  0  0  0  0  0  0  0  0
   13.6908   -1.2456   21.7368 H   0  0  0  0  0  0  0  0  0  0  0  0
   15.0310   -0.3729   22.3933 H   0  0  0  0  0  0  0  0  0  0  0  0
   13.2396    1.6804   21.7453 H   0  0  0  0  0  0  0  0  0  0  0  0
   12.6382    3.0349   23.9742 H   0  0  0  0  0  0  0  0  0  0  0  0
    9.9920    2.0718   22.8128 H   0  0  0  0  0  0  0  0  0  0  0  0
   10.9910    3.4142   22.2372 H   0  0  0  0  0  0  0  0  0  0  0  0
   10.5912    4.7280   24.2606 H   0  0  0  0  0  0  0  0  0  0  0  0
    8.9918    4.2385   23.7562 H   0  0  0  0  0  0  0  0  0  0  0  0
    9.8375    3.6560   26.2730 H   0  0  0  0  0  0  0  0  0  0  0  0
    9.0965    2.2972   25.4089 H   0  0  0  0  0  0  0  0  0  0  0  0
   11.0424    1.3032   25.5830 H   0  0  0  0  0  0  0  0  0  0  0  0
   15.2147   -0.6395   17.1521 H   0  0  0  0  0  0  0  0  0  0  0  0
   14.1314   -2.7297   15.9627 H   0  0  0  0  0  0  0  0  0  0  0  0
   13.4893   -4.5773   17.7448 H   0  0  0  0  0  0  0  0  0  0  0  0
  1  2  1  0
  2  3  1  0
  2  4  1  0
  4  5  1  0
  5  6  1  0
  6  7  1  0
  7  8  2  0
  7  9  1  0
  9 10  1  0
 10 11  1  0
 11 12  1  0
 12 13  1  0
  4 14  1  0
 14 15  2  0
 15 16  1  0
 16 17  2  0
 17 18  1  0
 13  9  1  0
 18 14  1  0
  1 19  1  0
  1 20  1  0
  1 21  1  0
  3 22  1  0
  3 23  1  0
  3 24  1  0
  4 25  1  0
  5 26  1  0
  5 27  1  0
  6 28  1  0
  9 29  1  0
 10 30  1  0
 10 31  1  0
 11 32  1  0
 11 33  1  0
 12 34  1  0
 12 35  1  0
 13 36  1  0
 15 37  1  0
 16 38  1  0
 17 39  1  0
M  END
>  <Energy>  (590) 
139.56573514213741

>  <compound_id>  (590) 
7936

>  <target_id>  (590) 
1

>  <reference_id>  (590) 
53

>  <inspiration_ids>  (590) 
[66, 53]

>  <energy_score>  (590) 
15.83088404495112

>  <distance_score>  (590) 
6.182621115623164

>  <path>  (590) 
/opt/xchem-fragalysis-2/maxwin/BulkDock/SCRATCH/511014/C7936-P53/C7936-P53.minimised.mol

>  <scratch_subdir>  (590) 
/opt/xchem-fragalysis-2/maxwin/BulkDock/SCRATCH/511014/C7936-P53

>  <fragmenstein_runtime>  (590) 
2.266232490539551

>  <fragmenstein_outcome>  (590) 
too moved

>  <fragmenstein_mode>  (590) 
expansion

>  <fragmenstein_error>  (590) 


$$$$
C7938-P66
     RDKit          3D

 33 35  0  0  0  0  0  0  0  0999 V2000
    1.4914    4.0062   26.1287 C   0  0  0  0  0  0  0  0  0  0  0  0
    0.8270    3.9533   24.9278 C   0  0  0  0  0  0  0  0  0  0  0  0
    1.8702    4.3829   23.6254 S   0  0  0  0  0  0  0  0  0  0  0  0
    3.2327    4.6811   24.6406 C   0  0  0  0  0  0  0  0  0  0  0  0
    4.9265    5.0270   24.0883 C   0  0  0  0  0  0  0  0  0  0  0  0
    5.9467    5.2153   24.9917 C   0  0  0  0  0  0  0  0  0  0  0  0
    7.5400    5.1232   24.2171 S   0  0  0  0  0  0  0  0  0  0  0  0
    6.8802    4.6586   22.6559 C   0  0  0  0  0  0  0  0  0  0  0  0
    8.0100    4.3314   21.2775 C   0  0  0  0  0  0  0  0  0  0  0  0
    9.1775    3.1839   21.0964 C   0  0  0  0  0  0  0  0  0  0  0  0
   10.3871    3.6280   20.1654 C   0  0  0  0  0  0  0  0  0  0  0  0
   10.0870    4.0503   18.7175 C   0  0  0  0  0  0  0  0  0  0  0  0
   11.3462    3.7364   17.9025 C   0  0  0  0  0  0  0  0  0  0  0  0
   12.3478    3.2702   18.9467 C   0  0  0  0  0  0  0  0  0  0  0  0
   11.5251    2.7041   20.0177 N   0  0  0  0  0  0  0  0  0  0  0  0
    5.4935    4.7535   22.7242 N   0  0  0  0  0  0  0  0  0  0  0  0
    2.8588    4.4563   25.9663 C   0  0  0  0  0  0  0  0  0  0  0  0
    1.0366    3.7674   27.0822 H   0  0  0  0  0  0  0  0  0  0  0  0
   -0.2025    3.6850   24.7384 H   0  0  0  0  0  0  0  0  0  0  0  0
    5.8987    5.3765   26.0573 H   0  0  0  0  0  0  0  0  0  0  0  0
    7.3162    4.2431   20.4319 H   0  0  0  0  0  0  0  0  0  0  0  0
    8.5018    5.3111   21.1952 H   0  0  0  0  0  0  0  0  0  0  0  0
    9.5644    2.9532   22.0956 H   0  0  0  0  0  0  0  0  0  0  0  0
    8.7052    2.2767   20.7057 H   0  0  0  0  0  0  0  0  0  0  0  0
   10.7915    4.5212   20.6665 H   0  0  0  0  0  0  0  0  0  0  0  0
    9.9035    5.1325   18.6924 H   0  0  0  0  0  0  0  0  0  0  0  0
    9.1866    3.5989   18.2990 H   0  0  0  0  0  0  0  0  0  0  0  0
   11.1328    3.0150   17.1156 H   0  0  0  0  0  0  0  0  0  0  0  0
   11.7118    4.6383   17.3980 H   0  0  0  0  0  0  0  0  0  0  0  0
   12.8817    4.1452   19.3422 H   0  0  0  0  0  0  0  0  0  0  0  0
   13.1256    2.6001   18.5777 H   0  0  0  0  0  0  0  0  0  0  0  0
   12.0518    2.6486   20.8883 H   0  0  0  0  0  0  0  0  0  0  0  0
    3.5475    4.5576   26.7951 H   0  0  0  0  0  0  0  0  0  0  0  0
  1  2  2  0
  2  3  1  0
  3  4  1  0
  4  5  1  0
  5  6  2  0
  6  7  1  0
  7  8  1  0
  8  9  1  0
  9 10  1  0
 10 11  1  0
 11 12  1  0
 12 13  1  0
 13 14  1  0
 14 15  1  0
  8 16  2  0
  4 17  2  0
 17  1  1  0
 16  5  1  0
 15 11  1  0
  1 18  1  0
  2 19  1  0
  6 20  1  0
  9 21  1  0
  9 22  1  0
 10 23  1  0
 10 24  1  0
 11 25  1  0
 12 26  1  0
 12 27  1  0
 13 28  1  0
 13 29  1  0
 14 30  1  0
 14 31  1  0
 15 32  1  0
 17 33  1  0
M  END
>  <Energy>  (591) 
87.397528817212702

>  <compound_id>  (591) 
7938

>  <target_id>  (591) 
1

>  <reference_id>  (591) 
66

>  <inspiration_ids>  (591) 
[66, 53]

>  <energy_score>  (591) 
-5.242670775566296

>  <distance_score>  (591) 
6.711113832175566

>  <path>  (591) 
/opt/xchem-fragalysis-2/maxwin/BulkDock/SCRATCH/511014/C7938-P66/C7938-P66.minimised.mol

>  <scratch_subdir>  (591) 
/opt/xchem-fragalysis-2/maxwin/BulkDock/SCRATCH/511014/C7938-P66

>  <fragmenstein_runtime>  (591) 
4.107435941696167

>  <fragmenstein_outcome>  (591) 
too moved

>  <fragmenstein_mode>  (591) 
expansion

>  <fragmenstein_error>  (591) 


$$$$
C7938-P53
     RDKit          3D

 33 35  0  0  0  0  0  0  0  0999 V2000
    2.9683    1.4925   27.3341 C   0  0  0  0  0  0  0  0  0  0  0  0
    3.0074    2.7687   26.8209 C   0  0  0  0  0  0  0  0  0  0  0  0
    4.6111    3.2645   26.4682 S   0  0  0  0  0  0  0  0  0  0  0  0
    5.2715    1.7744   26.9890 C   0  0  0  0  0  0  0  0  0  0  0  0
    6.8310    1.4056   26.9164 C   0  0  0  0  0  0  0  0  0  0  0  0
    7.3360    0.1955   27.3426 C   0  0  0  0  0  0  0  0  0  0  0  0
    9.0164    0.0712   26.9697 S   0  0  0  0  0  0  0  0  0  0  0  0
    8.9633    1.6122   26.2011 C   0  0  0  0  0  0  0  0  0  0  0  0
   10.1722    2.1674   25.4227 C   0  0  0  0  0  0  0  0  0  0  0  0
   10.8090    1.2752   24.3208 C   0  0  0  0  0  0  0  0  0  0  0  0
   11.8764    2.0506   23.5188 C   0  0  0  0  0  0  0  0  0  0  0  0
   11.3131    2.9020   22.3842 C   0  0  0  0  0  0  0  0  0  0  0  0
   12.5174    3.1540   21.4788 C   0  0  0  0  0  0  0  0  0  0  0  0
   13.5508    2.1157   21.8971 C   0  0  0  0  0  0  0  0  0  0  0  0
   12.8079    1.2104   22.7654 N   0  0  0  0  0  0  0  0  0  0  0  0
    7.8028    2.2472   26.3662 N   0  0  0  0  0  0  0  0  0  0  0  0
    4.2769    0.9231   27.4396 C   0  0  0  0  0  0  0  0  0  0  0  0
    2.0520    0.9891   27.6183 H   0  0  0  0  0  0  0  0  0  0  0  0
    2.1782    3.4376   26.6345 H   0  0  0  0  0  0  0  0  0  0  0  0
    6.8264   -0.6299   27.8152 H   0  0  0  0  0  0  0  0  0  0  0  0
   10.9434    2.4248   26.1604 H   0  0  0  0  0  0  0  0  0  0  0  0
    9.8541    3.1150   24.9707 H   0  0  0  0  0  0  0  0  0  0  0  0
   10.0383    0.8884   23.6492 H   0  0  0  0  0  0  0  0  0  0  0  0
   11.2739    0.4077   24.8053 H   0  0  0  0  0  0  0  0  0  0  0  0
   12.4554    2.6792   24.2093 H   0  0  0  0  0  0  0  0  0  0  0  0
   10.8759    3.8386   22.7440 H   0  0  0  0  0  0  0  0  0  0  0  0
   10.5390    2.3609   21.8255 H   0  0  0  0  0  0  0  0  0  0  0  0
   12.2337    3.0622   20.4285 H   0  0  0  0  0  0  0  0  0  0  0  0
   12.9113    4.1649   21.6315 H   0  0  0  0  0  0  0  0  0  0  0  0
   14.3633    2.5952   22.4558 H   0  0  0  0  0  0  0  0  0  0  0  0
   13.9947    1.5980   21.0426 H   0  0  0  0  0  0  0  0  0  0  0  0
   13.4149    0.6648   23.3726 H   0  0  0  0  0  0  0  0  0  0  0  0
    4.4601   -0.0772   27.8093 H   0  0  0  0  0  0  0  0  0  0  0  0
  1  2  2  0
  2  3  1  0
  3  4  1  0
  4  5  1  0
  5  6  2  0
  6  7  1  0
  7  8  1  0
  8  9  1  0
  9 10  1  0
 10 11  1  0
 11 12  1  0
 12 13  1  0
 13 14  1  0
 14 15  1  0
  8 16  2  0
  4 17  2  0
 17  1  1  0
 16  5  1  0
 15 11  1  0
  1 18  1  0
  2 19  1  0
  6 20  1  0
  9 21  1  0
  9 22  1  0
 10 23  1  0
 10 24  1  0
 11 25  1  0
 12 26  1  0
 12 27  1  0
 13 28  1  0
 13 29  1  0
 14 30  1  0
 14 31  1  0
 15 32  1  0
 17 33  1  0
M  END
>  <Energy>  (592) 
20.482301140558029

>  <compound_id>  (592) 
7938

>  <target_id>  (592) 
1

>  <reference_id>  (592) 
53

>  <inspiration_ids>  (592) 
[66, 53]

>  <energy_score>  (592) 
-52.471258833583306

>  <distance_score>  (592) 
7.835200737021893

>  <path>  (592) 
/opt/xchem-fragalysis-2/maxwin/BulkDock/SCRATCH/511014/C7938-P53/C7938-P53.minimised.mol

>  <scratch_subdir>  (592) 
/opt/xchem-fragalysis-2/maxwin/BulkDock/SCRATCH/511014/C7938-P53

>  <fragmenstein_runtime>  (592) 
6.283759355545044

>  <fragmenstein_outcome>  (592) 
too moved

>  <fragmenstein_mode>  (592) 
expansion

>  <fragmenstein_error>  (592) 


$$$$
C7940-P66
     RDKit          3D

 51 52  0  0  0  0  0  0  0  0999 V2000
   13.7085   -1.5523   13.5007 C   0  0  0  0  0  0  0  0  0  0  0  0
   13.5498   -1.9261   14.9054 N   0  0  0  0  0  0  0  0  0  0  0  0
   14.0557   -0.8629   15.7635 C   0  0  0  0  0  0  0  0  0  0  0  0
   12.1929   -2.3881   15.2542 C   0  0  0  0  0  0  0  0  0  0  0  0
   11.0415   -1.4836   14.7913 C   0  0  0  0  0  0  0  0  0  0  0  0
    9.6097   -1.9596   15.3254 C   0  0  0  0  0  0  0  0  0  0  0  0
    8.0542   -1.1489   15.3426 C   0  0  0  0  0  0  0  0  0  0  0  0
    8.6033   -0.0874   14.2256 C   0  0  0  0  0  0  0  0  0  0  0  0
    6.8978   -1.8064   14.5867 C   0  0  0  0  0  0  0  0  0  0  0  0
    7.5833    0.0966   16.6725 N   0  0  0  0  0  0  0  0  0  0  0  0
    7.9121    0.1180   18.3422 C   0  0  0  0  0  0  0  0  0  0  0  0
    8.4447   -0.7299   19.0309 O   0  0  0  0  0  0  0  0  0  0  0  0
    7.6315    1.5544   19.2837 C   0  0  0  0  0  0  0  0  0  0  0  0
    8.3638    1.8741   20.4617 C   0  0  0  0  0  0  0  0  0  0  0  0
    8.1691    3.1823   21.0040 C   0  0  0  0  0  0  0  0  0  0  0  0
    7.3564    3.9670   20.2114 C   0  0  0  0  0  0  0  0  0  0  0  0
    6.6294    5.2411   20.6320 C   0  0  0  0  0  0  0  0  0  0  0  0
    5.4601    5.7250   19.7646 C   0  0  0  0  0  0  0  0  0  0  0  0
    4.3192    6.0665   20.7265 C   0  0  0  0  0  0  0  0  0  0  0  0
    4.9765    6.0831   22.0863 C   0  0  0  0  0  0  0  0  0  0  0  0
    5.9891    5.0302   21.9625 N   0  0  0  0  0  0  0  0  0  0  0  0
    7.5106    3.3262   18.5737 S   0  0  0  0  0  0  0  0  0  0  0  0
   13.2154   -0.6037   13.2606 H   0  0  0  0  0  0  0  0  0  0  0  0
   13.3092   -2.3242   12.8381 H   0  0  0  0  0  0  0  0  0  0  0  0
   14.7714   -1.4494   13.2548 H   0  0  0  0  0  0  0  0  0  0  0  0
   15.1116   -0.6659   15.5446 H   0  0  0  0  0  0  0  0  0  0  0  0
   14.0157   -1.1613   16.8164 H   0  0  0  0  0  0  0  0  0  0  0  0
   13.5083    0.0764   15.6361 H   0  0  0  0  0  0  0  0  0  0  0  0
   12.0359   -3.3697   14.7985 H   0  0  0  0  0  0  0  0  0  0  0  0
   12.1420   -2.5691   16.3333 H   0  0  0  0  0  0  0  0  0  0  0  0
   11.2707   -0.4573   15.0834 H   0  0  0  0  0  0  0  0  0  0  0  0
   11.1061   -1.4898   13.7087 H   0  0  0  0  0  0  0  0  0  0  0  0
    9.8881   -2.0319   16.3533 H   0  0  0  0  0  0  0  0  0  0  0  0
    9.4367   -2.9317   14.8676 H   0  0  0  0  0  0  0  0  0  0  0  0
    8.0663   -0.1503   13.2877 H   0  0  0  0  0  0  0  0  0  0  0  0
    9.6371   -0.0953   13.9106 H   0  0  0  0  0  0  0  0  0  0  0  0
    8.6297    0.9067   14.6519 H   0  0  0  0  0  0  0  0  0  0  0  0
    5.9250   -1.3684   14.8197 H   0  0  0  0  0  0  0  0  0  0  0  0
    6.8615   -2.8567   14.7992 H   0  0  0  0  0  0  0  0  0  0  0  0
    6.9933   -1.7819   13.4977 H   0  0  0  0  0  0  0  0  0  0  0  0
    7.0625    0.9105   16.4242 H   0  0  0  0  0  0  0  0  0  0  0  0
    9.0500    1.1594   20.8989 H   0  0  0  0  0  0  0  0  0  0  0  0
    8.5278    3.4933   21.9791 H   0  0  0  0  0  0  0  0  0  0  0  0
    7.3750    6.0412   20.7276 H   0  0  0  0  0  0  0  0  0  0  0  0
    5.7634    6.6288   19.2218 H   0  0  0  0  0  0  0  0  0  0  0  0
    5.1095    5.0130   19.0143 H   0  0  0  0  0  0  0  0  0  0  0  0
    3.8477    7.0227   20.4805 H   0  0  0  0  0  0  0  0  0  0  0  0
    3.5485    5.2883   20.6788 H   0  0  0  0  0  0  0  0  0  0  0  0
    4.2686    5.8711   22.8926 H   0  0  0  0  0  0  0  0  0  0  0  0
    5.4565    7.0468   22.2895 H   0  0  0  0  0  0  0  0  0  0  0  0
    5.4616    4.1600   21.8538 H   0  0  0  0  0  0  0  0  0  0  0  0
  1  2  1  0
  2  3  1  0
  2  4  1  0
  4  5  1  0
  5  6  1  0
  6  7  1  0
  7  8  1  0
  7  9  1  0
  7 10  1  0
 10 11  1  0
 11 12  2  0
 11 13  1  0
 13 14  2  0
 14 15  1  0
 15 16  2  0
 16 17  1  0
 17 18  1  0
 18 19  1  0
 19 20  1  0
 20 21  1  0
 16 22  1  0
 22 13  1  0
 21 17  1  0
  1 23  1  0
  1 24  1  0
  1 25  1  0
  3 26  1  0
  3 27  1  0
  3 28  1  0
  4 29  1  0
  4 30  1  0
  5 31  1  0
  5 32  1  0
  6 33  1  0
  6 34  1  0
  8 35  1  0
  8 36  1  0
  8 37  1  0
  9 38  1  0
  9 39  1  0
  9 40  1  0
 10 41  1  0
 14 42  1  0
 15 43  1  0
 17 44  1  0
 18 45  1  0
 18 46  1  0
 19 47  1  0
 19 48  1  0
 20 49  1  0
 20 50  1  0
 21 51  1  0
M  END
>  <Energy>  (593) 
210.07608388969811

>  <compound_id>  (593) 
7940

>  <target_id>  (593) 
1

>  <reference_id>  (593) 
66

>  <inspiration_ids>  (593) 
[66, 53]

>  <energy_score>  (593) 
147.67202856359933

>  <distance_score>  (593) 
7.561763076313476

>  <path>  (593) 
/opt/xchem-fragalysis-2/maxwin/BulkDock/SCRATCH/511014/C7940-P66/C7940-P66.minimised.mol

>  <scratch_subdir>  (593) 
/opt/xchem-fragalysis-2/maxwin/BulkDock/SCRATCH/511014/C7940-P66

>  <fragmenstein_runtime>  (593) 
20.68444538116455

>  <fragmenstein_outcome>  (593) 
too moved

>  <fragmenstein_mode>  (593) 
expansion

>  <fragmenstein_error>  (593) 


$$$$
C7940-P53
     RDKit          3D

 51 52  0  0  0  0  0  0  0  0999 V2000
    9.0872    0.2461   15.0467 C   0  0  0  0  0  0  0  0  0  0  0  0
    9.5206    1.6316   14.9604 N   0  0  0  0  0  0  0  0  0  0  0  0
   10.9404    1.7358   14.6753 C   0  0  0  0  0  0  0  0  0  0  0  0
    9.0080    2.5250   16.0016 C   0  0  0  0  0  0  0  0  0  0  0  0
    8.9843    2.0059   17.4432 C   0  0  0  0  0  0  0  0  0  0  0  0
    8.2467    2.8810   18.4821 C   0  0  0  0  0  0  0  0  0  0  0  0
    8.8500    4.1154   19.2206 C   0  0  0  0  0  0  0  0  0  0  0  0
    9.9522    3.6685   20.1990 C   0  0  0  0  0  0  0  0  0  0  0  0
    9.4068    5.1386   18.2274 C   0  0  0  0  0  0  0  0  0  0  0  0
    7.7691    4.7587   20.0486 N   0  0  0  0  0  0  0  0  0  0  0  0
    7.7554    5.9991   20.7897 C   0  0  0  0  0  0  0  0  0  0  0  0
    8.5732    6.8685   20.8682 O   0  0  0  0  0  0  0  0  0  0  0  0
    6.5560    6.1475   21.6670 C   0  0  0  0  0  0  0  0  0  0  0  0
    6.5502    6.7650   22.9096 C   0  0  0  0  0  0  0  0  0  0  0  0
    5.2985    6.6757   23.5860 C   0  0  0  0  0  0  0  0  0  0  0  0
    4.3361    6.0013   22.8552 C   0  0  0  0  0  0  0  0  0  0  0  0
    2.8982    5.7002   23.2455 C   0  0  0  0  0  0  0  0  0  0  0  0
    2.4518    4.2480   23.0748 C   0  0  0  0  0  0  0  0  0  0  0  0
    1.3218    4.0555   24.0844 C   0  0  0  0  0  0  0  0  0  0  0  0
    1.3339    5.3123   24.9364 C   0  0  0  0  0  0  0  0  0  0  0  0
    2.6417    5.9278   24.6862 N   0  0  0  0  0  0  0  0  0  0  0  0
    4.9679    5.6041   21.2871 S   0  0  0  0  0  0  0  0  0  0  0  0
    8.0136    0.1666   15.2317 H   0  0  0  0  0  0  0  0  0  0  0  0
    9.6069   -0.2975   15.8421 H   0  0  0  0  0  0  0  0  0  0  0  0
    9.2864   -0.2718   14.1081 H   0  0  0  0  0  0  0  0  0  0  0  0
   11.2715    2.7791   14.6415 H   0  0  0  0  0  0  0  0  0  0  0  0
   11.5451    1.1961   15.4011 H   0  0  0  0  0  0  0  0  0  0  0  0
   11.1567    1.3104   13.6884 H   0  0  0  0  0  0  0  0  0  0  0  0
    9.5350    3.4828   15.9524 H   0  0  0  0  0  0  0  0  0  0  0  0
    7.9757    2.7673   15.7218 H   0  0  0  0  0  0  0  0  0  0  0  0
    8.4828    1.0318   17.4573 H   0  0  0  0  0  0  0  0  0  0  0  0
    9.9806    1.8009   17.7689 H   0  0  0  0  0  0  0  0  0  0  0  0
    7.3226    3.2315   18.0102 H   0  0  0  0  0  0  0  0  0  0  0  0
    7.9576    2.1887   19.2829 H   0  0  0  0  0  0  0  0  0  0  0  0
   10.8061    3.2189   19.7096 H   0  0  0  0  0  0  0  0  0  0  0  0
    9.5670    2.9360   20.9155 H   0  0  0  0  0  0  0  0  0  0  0  0
   10.3270    4.5181   20.7819 H   0  0  0  0  0  0  0  0  0  0  0  0
    9.7896    6.0299   18.7355 H   0  0  0  0  0  0  0  0  0  0  0  0
    8.6302    5.4707   17.5295 H   0  0  0  0  0  0  0  0  0  0  0  0
   10.2379    4.7290   17.6481 H   0  0  0  0  0  0  0  0  0  0  0  0
    6.9406    4.2254   20.2826 H   0  0  0  0  0  0  0  0  0  0  0  0
    7.4335    7.2365   23.3276 H   0  0  0  0  0  0  0  0  0  0  0  0
    5.1153    7.0885   24.5719 H   0  0  0  0  0  0  0  0  0  0  0  0
    2.2429    6.3656   22.6669 H   0  0  0  0  0  0  0  0  0  0  0  0
    2.1137    4.0422   22.0535 H   0  0  0  0  0  0  0  0  0  0  0  0
    3.2559    3.5410   23.3024 H   0  0  0  0  0  0  0  0  0  0  0  0
    0.3566    3.9285   23.5831 H   0  0  0  0  0  0  0  0  0  0  0  0
    1.5086    3.1622   24.6903 H   0  0  0  0  0  0  0  0  0  0  0  0
    1.1895    5.0929   25.9986 H   0  0  0  0  0  0  0  0  0  0  0  0
    0.5383    5.9986   24.6246 H   0  0  0  0  0  0  0  0  0  0  0  0
    3.3402    5.4069   25.2172 H   0  0  0  0  0  0  0  0  0  0  0  0
  1  2  1  0
  2  3  1  0
  2  4  1  0
  4  5  1  0
  5  6  1  0
  6  7  1  0
  7  8  1  0
  7  9  1  0
  7 10  1  0
 10 11  1  0
 11 12  2  0
 11 13  1  0
 13 14  2  0
 14 15  1  0
 15 16  2  0
 16 17  1  0
 17 18  1  0
 18 19  1  0
 19 20  1  0
 20 21  1  0
 16 22  1  0
 22 13  1  0
 21 17  1  0
  1 23  1  0
  1 24  1  0
  1 25  1  0
  3 26  1  0
  3 27  1  0
  3 28  1  0
  4 29  1  0
  4 30  1  0
  5 31  1  0
  5 32  1  0
  6 33  1  0
  6 34  1  0
  8 35  1  0
  8 36  1  0
  8 37  1  0
  9 38  1  0
  9 39  1  0
  9 40  1  0
 10 41  1  0
 14 42  1  0
 15 43  1  0
 17 44  1  0
 18 45  1  0
 18 46  1  0
 19 47  1  0
 19 48  1  0
 20 49  1  0
 20 50  1  0
 21 51  1  0
M  END
>  <Energy>  (594) 
30.758316801569283

>  <compound_id>  (594) 
7940

>  <target_id>  (594) 
1

>  <reference_id>  (594) 
53

>  <inspiration_ids>  (594) 
[66, 53]

>  <energy_score>  (594) 
-31.64573852452844

>  <distance_score>  (594) 
5.690064850003469

>  <path>  (594) 
/opt/xchem-fragalysis-2/maxwin/BulkDock/SCRATCH/511014/C7940-P53/C7940-P53.minimised.mol

>  <scratch_subdir>  (594) 
/opt/xchem-fragalysis-2/maxwin/BulkDock/SCRATCH/511014/C7940-P53

>  <fragmenstein_runtime>  (594) 
20.8209011554718

>  <fragmenstein_outcome>  (594) 
too moved

>  <fragmenstein_mode>  (594) 
expansion

>  <fragmenstein_error>  (594) 


$$$$
C7945-P66
     RDKit          3D

 39 40  0  0  0  0  0  0  0  0999 V2000
    0.9669    4.1631   27.3097 C   0  0  0  0  0  0  0  0  0  0  0  0
    1.6068    4.2360   25.9652 C   0  0  0  0  0  0  0  0  0  0  0  0
    1.2715    3.5531   24.8209 C   0  0  0  0  0  0  0  0  0  0  0  0
    2.1479    3.8694   23.7253 C   0  0  0  0  0  0  0  0  0  0  0  0
    3.1568    4.7828   24.0394 C   0  0  0  0  0  0  0  0  0  0  0  0
    4.2298    5.5335   23.1206 C   0  0  0  0  0  0  0  0  0  0  0  0
    5.5088    4.9492   22.5135 N   0  0  0  0  0  0  0  0  0  0  0  0
    6.1375    5.1253   21.0310 C   0  0  0  0  0  0  0  0  0  0  0  0
    5.7105    5.6668   20.0998 O   0  0  0  0  0  0  0  0  0  0  0  0
    7.5743    4.3995   21.2500 N   0  0  0  0  0  0  0  0  0  0  0  0
    8.8005    4.3199   20.3191 C   0  0  0  0  0  0  0  0  0  0  0  0
   10.0214    3.2425   20.3307 C   0  0  0  0  0  0  0  0  0  0  0  0
   11.2138    3.6113   19.3468 C   0  0  0  0  0  0  0  0  0  0  0  0
   10.9311    3.8801   17.8584 C   0  0  0  0  0  0  0  0  0  0  0  0
   12.2187    3.5526   17.1003 C   0  0  0  0  0  0  0  0  0  0  0  0
   13.2036    3.1248   18.1840 C   0  0  0  0  0  0  0  0  0  0  0  0
   12.3779    2.7069   19.3277 N   0  0  0  0  0  0  0  0  0  0  0  0
    2.9344    5.2843   25.6918 S   0  0  0  0  0  0  0  0  0  0  0  0
    0.5541    5.1361   27.5957 H   0  0  0  0  0  0  0  0  0  0  0  0
    0.1474    3.4366   27.3142 H   0  0  0  0  0  0  0  0  0  0  0  0
    1.6929    3.8538   28.0687 H   0  0  0  0  0  0  0  0  0  0  0  0
    0.4443    2.8607   24.7547 H   0  0  0  0  0  0  0  0  0  0  0  0
    2.0513    3.4477   22.7293 H   0  0  0  0  0  0  0  0  0  0  0  0
    4.5807    6.4129   23.6744 H   0  0  0  0  0  0  0  0  0  0  0  0
    3.6666    5.9189   22.2612 H   0  0  0  0  0  0  0  0  0  0  0  0
    6.1730    4.4941   23.1124 H   0  0  0  0  0  0  0  0  0  0  0  0
    7.6610    4.0977   22.2035 H   0  0  0  0  0  0  0  0  0  0  0  0
    9.2603    5.3092   20.4337 H   0  0  0  0  0  0  0  0  0  0  0  0
    8.3677    4.3054   19.3117 H   0  0  0  0  0  0  0  0  0  0  0  0
    9.6127    2.2454   20.1864 H   0  0  0  0  0  0  0  0  0  0  0  0
   10.4222    3.2411   21.3531 H   0  0  0  0  0  0  0  0  0  0  0  0
   11.5940    4.5644   19.7472 H   0  0  0  0  0  0  0  0  0  0  0  0
   10.6945    4.9439   17.7257 H   0  0  0  0  0  0  0  0  0  0  0  0
   10.0820    3.3482   17.4384 H   0  0  0  0  0  0  0  0  0  0  0  0
   12.5929    4.4400   16.5767 H   0  0  0  0  0  0  0  0  0  0  0  0
   12.0454    2.7942   16.3315 H   0  0  0  0  0  0  0  0  0  0  0  0
   13.8963    2.3448   17.8533 H   0  0  0  0  0  0  0  0  0  0  0  0
   13.8120    3.9879   18.4823 H   0  0  0  0  0  0  0  0  0  0  0  0
   12.9031    2.7791   20.1982 H   0  0  0  0  0  0  0  0  0  0  0  0
  1  2  1  0
  2  3  2  0
  3  4  1  0
  4  5  2  0
  5  6  1  0
  6  7  1  0
  7  8  1  0
  8  9  2  0
  8 10  1  0
 10 11  1  0
 11 12  1  0
 12 13  1  0
 13 14  1  0
 14 15  1  0
 15 16  1  0
 16 17  1  0
  5 18  1  0
 18  2  1  0
 17 13  1  0
  1 19  1  0
  1 20  1  0
  1 21  1  0
  3 22  1  0
  4 23  1  0
  6 24  1  0
  6 25  1  0
  7 26  1  0
 10 27  1  0
 11 28  1  0
 11 29  1  0
 12 30  1  0
 12 31  1  0
 13 32  1  0
 14 33  1  0
 14 34  1  0
 15 35  1  0
 15 36  1  0
 16 37  1  0
 16 38  1  0
 17 39  1  0
M  END
>  <Energy>  (595) 
-10.601893148303578

>  <compound_id>  (595) 
7945

>  <target_id>  (595) 
1

>  <reference_id>  (595) 
66

>  <inspiration_ids>  (595) 
[66, 53]

>  <energy_score>  (595) 
41.41548265592664

>  <distance_score>  (595) 
6.147139224418911

>  <path>  (595) 
/opt/xchem-fragalysis-2/maxwin/BulkDock/SCRATCH/511014/C7945-P66/C7945-P66.minimised.mol

>  <scratch_subdir>  (595) 
/opt/xchem-fragalysis-2/maxwin/BulkDock/SCRATCH/511014/C7945-P66

>  <fragmenstein_runtime>  (595) 
6.4156200885772705

>  <fragmenstein_outcome>  (595) 
too moved

>  <fragmenstein_mode>  (595) 
expansion

>  <fragmenstein_error>  (595) 


$$$$
C7945-P53
     RDKit          3D

 39 40  0  0  0  0  0  0  0  0999 V2000
    0.9093    3.9073   25.0448 C   0  0  0  0  0  0  0  0  0  0  0  0
    2.0703    4.5522   24.3657 C   0  0  0  0  0  0  0  0  0  0  0  0
    3.2164    5.0521   24.9428 C   0  0  0  0  0  0  0  0  0  0  0  0
    4.0860    5.6509   23.9825 C   0  0  0  0  0  0  0  0  0  0  0  0
    3.5985    5.5842   22.6887 C   0  0  0  0  0  0  0  0  0  0  0  0
    4.1781    6.2025   21.4348 C   0  0  0  0  0  0  0  0  0  0  0  0
    5.3107    5.4742   20.8977 N   0  0  0  0  0  0  0  0  0  0  0  0
    6.5566    5.9657   20.2096 C   0  0  0  0  0  0  0  0  0  0  0  0
    6.9323    7.0599   20.0203 O   0  0  0  0  0  0  0  0  0  0  0  0
    7.1685    4.6609   19.8279 N   0  0  0  0  0  0  0  0  0  0  0  0
    8.3627    4.3583   19.0237 C   0  0  0  0  0  0  0  0  0  0  0  0
    8.0113    3.8824   17.5957 C   0  0  0  0  0  0  0  0  0  0  0  0
    9.0245    2.9469   16.9174 C   0  0  0  0  0  0  0  0  0  0  0  0
    9.9438    3.6225   15.9039 C   0  0  0  0  0  0  0  0  0  0  0  0
   10.3888    2.4897   14.9709 C   0  0  0  0  0  0  0  0  0  0  0  0
    9.4191    1.3493   15.2447 C   0  0  0  0  0  0  0  0  0  0  0  0
    8.3676    1.9982   16.0089 N   0  0  0  0  0  0  0  0  0  0  0  0
    2.0755    4.7834   22.6676 S   0  0  0  0  0  0  0  0  0  0  0  0
    1.2138    3.4674   26.0002 H   0  0  0  0  0  0  0  0  0  0  0  0
    0.1282    4.6482   25.2436 H   0  0  0  0  0  0  0  0  0  0  0  0
    0.4799    3.1077   24.4330 H   0  0  0  0  0  0  0  0  0  0  0  0
    3.4140    5.0193   26.0075 H   0  0  0  0  0  0  0  0  0  0  0  0
    5.0233    6.1359   24.2299 H   0  0  0  0  0  0  0  0  0  0  0  0
    3.4299    6.2543   20.6365 H   0  0  0  0  0  0  0  0  0  0  0  0
    4.5043    7.2282   21.6391 H   0  0  0  0  0  0  0  0  0  0  0  0
    5.2545    4.4721   20.8119 H   0  0  0  0  0  0  0  0  0  0  0  0
    6.6274    3.9161   20.2168 H   0  0  0  0  0  0  0  0  0  0  0  0
    8.9888    5.2546   18.9811 H   0  0  0  0  0  0  0  0  0  0  0  0
    8.8995    3.5760   19.5692 H   0  0  0  0  0  0  0  0  0  0  0  0
    7.8068    4.7608   16.9703 H   0  0  0  0  0  0  0  0  0  0  0  0
    7.0585    3.3566   17.6487 H   0  0  0  0  0  0  0  0  0  0  0  0
    9.5645    2.3720   17.6728 H   0  0  0  0  0  0  0  0  0  0  0  0
   10.7839    4.1529   16.3576 H   0  0  0  0  0  0  0  0  0  0  0  0
    9.3917    4.3658   15.3124 H   0  0  0  0  0  0  0  0  0  0  0  0
   11.4194    2.1831   15.1670 H   0  0  0  0  0  0  0  0  0  0  0  0
   10.3332    2.8211   13.9279 H   0  0  0  0  0  0  0  0  0  0  0  0
    9.0399    0.9047   14.3208 H   0  0  0  0  0  0  0  0  0  0  0  0
    9.8968    0.5612   15.8353 H   0  0  0  0  0  0  0  0  0  0  0  0
    7.7322    1.3574   16.4940 H   0  0  0  0  0  0  0  0  0  0  0  0
  1  2  1  0
  2  3  2  0
  3  4  1  0
  4  5  2  0
  5  6  1  0
  6  7  1  0
  7  8  1  0
  8  9  2  0
  8 10  1  0
 10 11  1  0
 11 12  1  0
 12 13  1  0
 13 14  1  0
 14 15  1  0
 15 16  1  0
 16 17  1  0
  5 18  1  0
 18  2  1  0
 17 13  1  0
  1 19  1  0
  1 20  1  0
  1 21  1  0
  3 22  1  0
  4 23  1  0
  6 24  1  0
  6 25  1  0
  7 26  1  0
 10 27  1  0
 11 28  1  0
 11 29  1  0
 12 30  1  0
 12 31  1  0
 13 32  1  0
 14 33  1  0
 14 34  1  0
 15 35  1  0
 15 36  1  0
 16 37  1  0
 16 38  1  0
 17 39  1  0
M  END
>  <Energy>  (596) 
-60.89737626210912

>  <compound_id>  (596) 
7945

>  <target_id>  (596) 
1

>  <reference_id>  (596) 
53

>  <inspiration_ids>  (596) 
[66, 53]

>  <energy_score>  (596) 
-6.718364050871401

>  <distance_score>  (596) 
6.833632748552494

>  <path>  (596) 
/opt/xchem-fragalysis-2/maxwin/BulkDock/SCRATCH/511014/C7945-P53/C7945-P53.minimised.mol

>  <scratch_subdir>  (596) 
/opt/xchem-fragalysis-2/maxwin/BulkDock/SCRATCH/511014/C7945-P53

>  <fragmenstein_runtime>  (596) 
10.50022029876709

>  <fragmenstein_outcome>  (596) 
too moved

>  <fragmenstein_mode>  (596) 
expansion

>  <fragmenstein_error>  (596) 


$$$$
C7955-P66
     RDKit          3D

 44 45  0  0  0  0  0  0  0  0999 V2000
    2.8562    5.7095   21.4205 C   0  0  0  0  0  0  0  0  0  0  0  0
    3.5356    5.4545   20.1105 C   0  0  0  0  0  0  0  0  0  0  0  0
    3.0034    4.9703   18.9360 C   0  0  0  0  0  0  0  0  0  0  0  0
    4.0064    4.7237   17.9322 C   0  0  0  0  0  0  0  0  0  0  0  0
    5.2987    5.0128   18.3424 C   0  0  0  0  0  0  0  0  0  0  0  0
    6.6098    4.8519   17.7555 C   0  0  0  0  0  0  0  0  0  0  0  0
    7.1533    3.9606   16.8799 C   0  0  0  0  0  0  0  0  0  0  0  0
    6.5528    2.7713   16.1705 C   0  0  0  0  0  0  0  0  0  0  0  0
    5.4147    2.8790   15.7731 O   0  0  0  0  0  0  0  0  0  0  0  0
    7.5054    1.5492   16.1705 N   0  0  0  0  0  0  0  0  0  0  0  0
    7.2163   -0.1815   15.6946 C   0  0  0  0  0  0  0  0  0  0  0  0
    8.2689   -0.7018   14.4887 C   0  0  0  0  0  0  0  0  0  0  0  0
    7.2764   -1.2890   13.4163 C   0  0  0  0  0  0  0  0  0  0  0  0
    8.8918   -1.9958   15.0622 C   0  0  0  0  0  0  0  0  0  0  0  0
    9.6742    0.3142   14.0882 C   0  0  0  0  0  0  0  0  0  0  0  0
    9.9956    1.3559   13.0164 C   0  0  0  0  0  0  0  0  0  0  0  0
   11.5067    1.3870   12.8235 C   0  0  0  0  0  0  0  0  0  0  0  0
   12.0483    0.6353   14.0086 C   0  0  0  0  0  0  0  0  0  0  0  0
   11.0128   -0.3434   14.2581 N   0  0  0  0  0  0  0  0  0  0  0  0
    5.2087    5.7679   19.9300 S   0  0  0  0  0  0  0  0  0  0  0  0
    3.3915    5.2213   22.2412 H   0  0  0  0  0  0  0  0  0  0  0  0
    1.8331    5.3195   21.4082 H   0  0  0  0  0  0  0  0  0  0  0  0
    2.8080    6.7843   21.6227 H   0  0  0  0  0  0  0  0  0  0  0  0
    1.9523    4.7502   18.8013 H   0  0  0  0  0  0  0  0  0  0  0  0
    3.7829    4.3073   16.9571 H   0  0  0  0  0  0  0  0  0  0  0  0
    7.3352    5.5780   18.1285 H   0  0  0  0  0  0  0  0  0  0  0  0
    8.2117    4.0714   16.6600 H   0  0  0  0  0  0  0  0  0  0  0  0
    8.3622    1.7924   16.6599 H   0  0  0  0  0  0  0  0  0  0  0  0
    7.3512   -0.5493   16.6756 H   0  0  0  0  0  0  0  0  0  0  0  0
    6.1733   -0.5179   15.6054 H   0  0  0  0  0  0  0  0  0  0  0  0
    7.4360   -0.9186   12.4168 H   0  0  0  0  0  0  0  0  0  0  0  0
    7.3782   -2.3625   13.3726 H   0  0  0  0  0  0  0  0  0  0  0  0
    6.2081   -1.2314   13.6433 H   0  0  0  0  0  0  0  0  0  0  0  0
    9.6473   -2.5227   14.4840 H   0  0  0  0  0  0  0  0  0  0  0  0
    9.4214   -1.8241   15.9830 H   0  0  0  0  0  0  0  0  0  0  0  0
    8.0762   -2.7014   15.2088 H   0  0  0  0  0  0  0  0  0  0  0  0
    9.6032    1.0980   14.8393 H   0  0  0  0  0  0  0  0  0  0  0  0
    9.4513    1.2292   12.1155 H   0  0  0  0  0  0  0  0  0  0  0  0
    9.7632    2.3765   13.3565 H   0  0  0  0  0  0  0  0  0  0  0  0
   11.8903    2.4125   12.7881 H   0  0  0  0  0  0  0  0  0  0  0  0
   11.7895    0.9161   11.8841 H   0  0  0  0  0  0  0  0  0  0  0  0
   12.1677    1.3015   14.8703 H   0  0  0  0  0  0  0  0  0  0  0  0
   13.0131    0.1668   13.7960 H   0  0  0  0  0  0  0  0  0  0  0  0
   11.0851   -0.7424   15.1841 H   0  0  0  0  0  0  0  0  0  0  0  0
  1  2  1  0
  2  3  2  0
  3  4  1  0
  4  5  2  0
  5  6  1  0
  6  7  2  3
  7  8  1  0
  8  9  2  0
  8 10  1  0
 10 11  1  0
 11 12  1  0
 12 13  1  0
 12 14  1  0
 12 15  1  0
 15 16  1  0
 16 17  1  0
 17 18  1  0
 18 19  1  0
  5 20  1  0
 20  2  1  0
 19 15  1  0
  1 21  1  0
  1 22  1  0
  1 23  1  0
  3 24  1  0
  4 25  1  0
  6 26  1  0
  7 27  1  0
 10 28  1  0
 11 29  1  0
 11 30  1  0
 13 31  1  0
 13 32  1  0
 13 33  1  0
 14 34  1  0
 14 35  1  0
 14 36  1  0
 15 37  1  0
 16 38  1  0
 16 39  1  0
 17 40  1  0
 17 41  1  0
 18 42  1  0
 18 43  1  0
 19 44  1  0
M  END
>  <Energy>  (597) 
130.28658898691518

>  <compound_id>  (597) 
7955

>  <target_id>  (597) 
1

>  <reference_id>  (597) 
66

>  <inspiration_ids>  (597) 
[66, 53]

>  <energy_score>  (597) 
51.71570626389399

>  <distance_score>  (597) 
8.445079126470372

>  <path>  (597) 
/opt/xchem-fragalysis-2/maxwin/BulkDock/SCRATCH/511014/C7955-P66/C7955-P66.minimised.mol

>  <scratch_subdir>  (597) 
/opt/xchem-fragalysis-2/maxwin/BulkDock/SCRATCH/511014/C7955-P66

>  <fragmenstein_runtime>  (597) 
12.228852272033691

>  <fragmenstein_outcome>  (597) 
too moved

>  <fragmenstein_mode>  (597) 
expansion

>  <fragmenstein_error>  (597) 


$$$$
C7955-P53
     RDKit          3D

 44 45  0  0  0  0  0  0  0  0999 V2000
    1.9887    3.8894   24.9544 C   0  0  0  0  0  0  0  0  0  0  0  0
    2.9263    2.9006   24.3364 C   0  0  0  0  0  0  0  0  0  0  0  0
    3.5387    1.8668   24.9544 C   0  0  0  0  0  0  0  0  0  0  0  0
    4.3305    1.0750   24.0680 C   0  0  0  0  0  0  0  0  0  0  0  0
    4.7459    1.4585   22.6194 C   0  0  0  0  0  0  0  0  0  0  0  0
    6.2531    1.9505   21.4382 C   0  0  0  0  0  0  0  0  0  0  0  0
    7.3644    2.1475   20.4935 C   0  0  0  0  0  0  0  0  0  0  0  0
    8.0293    1.2148   19.3533 C   0  0  0  0  0  0  0  0  0  0  0  0
    8.0695    0.0413   19.5730 O   0  0  0  0  0  0  0  0  0  0  0  0
    8.5683    1.9831   18.2627 N   0  0  0  0  0  0  0  0  0  0  0  0
    9.4189    1.5860   17.1336 C   0  0  0  0  0  0  0  0  0  0  0  0
    9.1477    1.3086   15.6486 C   0  0  0  0  0  0  0  0  0  0  0  0
    8.5916    2.6421   15.1448 C   0  0  0  0  0  0  0  0  0  0  0  0
    8.2811    0.0674   15.4622 C   0  0  0  0  0  0  0  0  0  0  0  0
   10.4139    0.9607   14.7380 C   0  0  0  0  0  0  0  0  0  0  0  0
   11.0240   -0.4529   14.8097 C   0  0  0  0  0  0  0  0  0  0  0  0
   12.4875   -0.2856   14.4297 C   0  0  0  0  0  0  0  0  0  0  0  0
   12.6077    1.1675   14.0188 C   0  0  0  0  0  0  0  0  0  0  0  0
   11.5789    1.8425   14.8150 N   0  0  0  0  0  0  0  0  0  0  0  0
    3.2135    2.9419   22.6741 S   0  0  0  0  0  0  0  0  0  0  0  0
    1.9800    3.7932   26.0453 H   0  0  0  0  0  0  0  0  0  0  0  0
    0.9674    3.7275   24.5938 H   0  0  0  0  0  0  0  0  0  0  0  0
    2.2882    4.9146   24.7127 H   0  0  0  0  0  0  0  0  0  0  0  0
    3.3703    1.6035   25.9919 H   0  0  0  0  0  0  0  0  0  0  0  0
    4.6407    0.1027   24.4660 H   0  0  0  0  0  0  0  0  0  0  0  0
    5.4038    0.9850   21.0139 H   0  0  0  0  0  0  0  0  0  0  0  0
    7.9043    3.0915   20.5560 H   0  0  0  0  0  0  0  0  0  0  0  0
    8.2717    2.9451   18.3589 H   0  0  0  0  0  0  0  0  0  0  0  0
   10.0899    2.4248   17.1073 H   0  0  0  0  0  0  0  0  0  0  0  0
    9.8863    0.6915   17.4797 H   0  0  0  0  0  0  0  0  0  0  0  0
    7.5494    2.7843   15.4400 H   0  0  0  0  0  0  0  0  0  0  0  0
    9.1440    3.5019   15.5465 H   0  0  0  0  0  0  0  0  0  0  0  0
    8.7302    2.7292   14.0680 H   0  0  0  0  0  0  0  0  0  0  0  0
    7.3118    0.1316   15.9262 H   0  0  0  0  0  0  0  0  0  0  0  0
    8.1244   -0.1596   14.4029 H   0  0  0  0  0  0  0  0  0  0  0  0
    8.7561   -0.8141   15.8954 H   0  0  0  0  0  0  0  0  0  0  0  0
   10.0489    1.0441   13.6999 H   0  0  0  0  0  0  0  0  0  0  0  0
   10.9349   -0.9375   15.7808 H   0  0  0  0  0  0  0  0  0  0  0  0
   10.5343   -1.1213   14.0966 H   0  0  0  0  0  0  0  0  0  0  0  0
   12.7818   -0.9636   13.6223 H   0  0  0  0  0  0  0  0  0  0  0  0
   13.1254   -0.4983   15.2948 H   0  0  0  0  0  0  0  0  0  0  0  0
   13.6044    1.5713   14.2165 H   0  0  0  0  0  0  0  0  0  0  0  0
   12.3979    1.2853   12.9487 H   0  0  0  0  0  0  0  0  0  0  0  0
   11.3600    2.7541   14.4160 H   0  0  0  0  0  0  0  0  0  0  0  0
  1  2  1  0
  2  3  2  0
  3  4  1  0
  4  5  2  0
  5  6  1  0
  6  7  2  3
  7  8  1  0
  8  9  2  0
  8 10  1  0
 10 11  1  0
 11 12  1  0
 12 13  1  0
 12 14  1  0
 12 15  1  0
 15 16  1  0
 16 17  1  0
 17 18  1  0
 18 19  1  0
  5 20  1  0
 20  2  1  0
 19 15  1  0
  1 21  1  0
  1 22  1  0
  1 23  1  0
  3 24  1  0
  4 25  1  0
  6 26  1  0
  7 27  1  0
 10 28  1  0
 11 29  1  0
 11 30  1  0
 13 31  1  0
 13 32  1  0
 13 33  1  0
 14 34  1  0
 14 35  1  0
 14 36  1  0
 15 37  1  0
 16 38  1  0
 16 39  1  0
 17 40  1  0
 17 41  1  0
 18 42  1  0
 18 43  1  0
 19 44  1  0
M  END
>  <Energy>  (598) 
319.40827953425025

>  <compound_id>  (598) 
7955

>  <target_id>  (598) 
1

>  <reference_id>  (598) 
53

>  <inspiration_ids>  (598) 
[66, 53]

>  <energy_score>  (598) 
240.8373968112321

>  <distance_score>  (598) 
6.299536276509853

>  <path>  (598) 
/opt/xchem-fragalysis-2/maxwin/BulkDock/SCRATCH/511014/C7955-P53/C7955-P53.minimised.mol

>  <scratch_subdir>  (598) 
/opt/xchem-fragalysis-2/maxwin/BulkDock/SCRATCH/511014/C7955-P53

>  <fragmenstein_runtime>  (598) 
8.92360782623291

>  <fragmenstein_outcome>  (598) 
too moved

>  <fragmenstein_mode>  (598) 
expansion

>  <fragmenstein_error>  (598) 


$$$$
C7959-P66
     RDKit          3D

 47 48  0  0  0  0  0  0  0  0999 V2000
   15.0709   -2.9477   18.2945 C   0  0  0  0  0  0  0  0  0  0  0  0
   15.0052   -1.5753   18.8709 C   0  0  0  0  0  0  0  0  0  0  0  0
   15.1151   -0.3609   18.2292 C   0  0  0  0  0  0  0  0  0  0  0  0
   15.0402    0.7370   19.1604 C   0  0  0  0  0  0  0  0  0  0  0  0
   14.7304    0.3559   20.4772 C   0  0  0  0  0  0  0  0  0  0  0  0
   14.3426    1.2775   21.6189 C   0  0  0  0  0  0  0  0  0  0  0  0
   14.9970    2.2416   21.7471 O   0  0  0  0  0  0  0  0  0  0  0  0
   13.0490    0.8214   22.3778 N   0  0  0  0  0  0  0  0  0  0  0  0
   12.3361    1.4386   23.5497 C   0  0  0  0  0  0  0  0  0  0  0  0
   10.8880    2.1105   23.3313 C   0  0  0  0  0  0  0  0  0  0  0  0
   10.4198    2.1356   22.2496 O   0  0  0  0  0  0  0  0  0  0  0  0
   10.3377    2.6991   24.7060 N   0  0  0  0  0  0  0  0  0  0  0  0
    9.1215    3.5338   24.9901 C   0  0  0  0  0  0  0  0  0  0  0  0
    8.2359    3.3302   26.3381 C   0  0  0  0  0  0  0  0  0  0  0  0
    9.0098    3.9718   27.5080 C   0  0  0  0  0  0  0  0  0  0  0  0
    8.1462    1.8188   26.6495 C   0  0  0  0  0  0  0  0  0  0  0  0
    6.7678    3.9896   26.1935 C   0  0  0  0  0  0  0  0  0  0  0  0
    6.6043    5.4848   26.4679 C   0  0  0  0  0  0  0  0  0  0  0  0
    5.0897    5.6749   26.4548 C   0  0  0  0  0  0  0  0  0  0  0  0
    4.5436    4.3616   26.9939 C   0  0  0  0  0  0  0  0  0  0  0  0
    5.6860    3.4262   27.0444 N   0  0  0  0  0  0  0  0  0  0  0  0
   14.8540   -1.3635   20.5807 S   0  0  0  0  0  0  0  0  0  0  0  0
   14.9196   -2.9208   17.2103 H   0  0  0  0  0  0  0  0  0  0  0  0
   16.0501   -3.3970   18.4892 H   0  0  0  0  0  0  0  0  0  0  0  0
   14.2994   -3.5971   18.7209 H   0  0  0  0  0  0  0  0  0  0  0  0
   15.2696   -0.2472   17.1628 H   0  0  0  0  0  0  0  0  0  0  0  0
   15.0953    1.7803   18.8687 H   0  0  0  0  0  0  0  0  0  0  0  0
   12.7843   -0.1139   22.0695 H   0  0  0  0  0  0  0  0  0  0  0  0
   12.9966    2.2160   23.9461 H   0  0  0  0  0  0  0  0  0  0  0  0
   12.2197    0.6426   24.2914 H   0  0  0  0  0  0  0  0  0  0  0  0
   11.0331    2.5726   25.4330 H   0  0  0  0  0  0  0  0  0  0  0  0
    9.4765    4.5714   24.9682 H   0  0  0  0  0  0  0  0  0  0  0  0
    8.4929    3.4265   24.1037 H   0  0  0  0  0  0  0  0  0  0  0  0
    9.9796    3.4830   27.6564 H   0  0  0  0  0  0  0  0  0  0  0  0
    8.4506    3.8903   28.4465 H   0  0  0  0  0  0  0  0  0  0  0  0
    9.2114    5.0320   27.3228 H   0  0  0  0  0  0  0  0  0  0  0  0
    7.6168    1.2579   25.8807 H   0  0  0  0  0  0  0  0  0  0  0  0
    9.1431    1.3730   26.7441 H   0  0  0  0  0  0  0  0  0  0  0  0
    7.6339    1.6374   27.6009 H   0  0  0  0  0  0  0  0  0  0  0  0
    6.4600    3.8662   25.1567 H   0  0  0  0  0  0  0  0  0  0  0  0
    7.0973    6.1047   25.7129 H   0  0  0  0  0  0  0  0  0  0  0  0
    6.9932    5.7639   27.4538 H   0  0  0  0  0  0  0  0  0  0  0  0
    4.7438    5.8323   25.4264 H   0  0  0  0  0  0  0  0  0  0  0  0
    4.7837    6.5359   27.0563 H   0  0  0  0  0  0  0  0  0  0  0  0
    3.7547    3.9689   26.3448 H   0  0  0  0  0  0  0  0  0  0  0  0
    4.1215    4.4877   27.9964 H   0  0  0  0  0  0  0  0  0  0  0  0
    6.0219    3.3832   28.0084 H   0  0  0  0  0  0  0  0  0  0  0  0
  1  2  1  0
  2  3  2  0
  3  4  1  0
  4  5  2  0
  5  6  1  0
  6  7  2  0
  6  8  1  0
  8  9  1  0
  9 10  1  0
 10 11  2  0
 10 12  1  0
 12 13  1  0
 13 14  1  0
 14 15  1  0
 14 16  1  0
 14 17  1  0
 17 18  1  0
 18 19  1  0
 19 20  1  0
 20 21  1  0
  5 22  1  0
 22  2  1  0
 21 17  1  0
  1 23  1  0
  1 24  1  0
  1 25  1  0
  3 26  1  0
  4 27  1  0
  8 28  1  0
  9 29  1  0
  9 30  1  0
 12 31  1  0
 13 32  1  0
 13 33  1  0
 15 34  1  0
 15 35  1  0
 15 36  1  0
 16 37  1  0
 16 38  1  0
 16 39  1  0
 17 40  1  0
 18 41  1  0
 18 42  1  0
 19 43  1  0
 19 44  1  0
 20 45  1  0
 20 46  1  0
 21 47  1  0
M  END
>  <Energy>  (599) 
80.18428598688287

>  <compound_id>  (599) 
7959

>  <target_id>  (599) 
1

>  <reference_id>  (599) 
66

>  <inspiration_ids>  (599) 
[66, 53]

>  <energy_score>  (599) 
16.982042539957035

>  <distance_score>  (599) 
4.1123328425182475

>  <path>  (599) 
/opt/xchem-fragalysis-2/maxwin/BulkDock/SCRATCH/511014/C7959-P66/C7959-P66.minimised.mol

>  <scratch_subdir>  (599) 
/opt/xchem-fragalysis-2/maxwin/BulkDock/SCRATCH/511014/C7959-P66

>  <fragmenstein_runtime>  (599) 
6.940183877944946

>  <fragmenstein_outcome>  (599) 
too moved

>  <fragmenstein_mode>  (599) 
expansion

>  <fragmenstein_error>  (599) 


$$$$
C7959-P53
     RDKit          3D

 47 48  0  0  0  0  0  0  0  0999 V2000
   14.5098   -3.7730   19.3175 C   0  0  0  0  0  0  0  0  0  0  0  0
   14.5966   -2.4010   19.8954 C   0  0  0  0  0  0  0  0  0  0  0  0
   15.0262   -1.2353   19.3065 C   0  0  0  0  0  0  0  0  0  0  0  0
   14.9103   -0.1128   20.2019 C   0  0  0  0  0  0  0  0  0  0  0  0
   14.4022   -0.4244   21.4691 C   0  0  0  0  0  0  0  0  0  0  0  0
   14.1990    0.5359   22.6383 C   0  0  0  0  0  0  0  0  0  0  0  0
   15.0044    1.3779   22.7581 O   0  0  0  0  0  0  0  0  0  0  0  0
   12.8822    0.2777   23.4340 N   0  0  0  0  0  0  0  0  0  0  0  0
   12.3231    0.9686   24.6350 C   0  0  0  0  0  0  0  0  0  0  0  0
   10.8883    1.6430   24.4359 C   0  0  0  0  0  0  0  0  0  0  0  0
   10.4951    1.8116   23.3378 O   0  0  0  0  0  0  0  0  0  0  0  0
   10.2295    2.0203   25.8332 N   0  0  0  0  0  0  0  0  0  0  0  0
    8.8981    2.5982   26.1439 C   0  0  0  0  0  0  0  0  0  0  0  0
    8.3203    3.0044   27.5413 C   0  0  0  0  0  0  0  0  0  0  0  0
    9.2611    4.0620   28.1516 C   0  0  0  0  0  0  0  0  0  0  0  0
    8.3346    1.7603   28.4514 C   0  0  0  0  0  0  0  0  0  0  0  0
    6.8257    3.6094   27.5094 C   0  0  0  0  0  0  0  0  0  0  0  0
    6.5810    4.8724   26.6740 C   0  0  0  0  0  0  0  0  0  0  0  0
    5.0586    4.9670   26.5260 C   0  0  0  0  0  0  0  0  0  0  0  0
    4.5375    3.6051   26.9608 C   0  0  0  0  0  0  0  0  0  0  0  0
    5.7351    2.7501   27.0104 N   0  0  0  0  0  0  0  0  0  0  0  0
   14.2065   -2.1378   21.5536 S   0  0  0  0  0  0  0  0  0  0  0  0
   14.6171   -3.7431   18.2282 H   0  0  0  0  0  0  0  0  0  0  0  0
   15.3047   -4.4096   19.7191 H   0  0  0  0  0  0  0  0  0  0  0  0
   13.5437   -4.2358   19.5438 H   0  0  0  0  0  0  0  0  0  0  0  0
   15.3948   -1.1706   18.2894 H   0  0  0  0  0  0  0  0  0  0  0  0
   15.1901    0.9009   19.9372 H   0  0  0  0  0  0  0  0  0  0  0  0
   12.3732   -0.5009   23.0092 H   0  0  0  0  0  0  0  0  0  0  0  0
   13.0288    1.7479   24.9352 H   0  0  0  0  0  0  0  0  0  0  0  0
   12.2413    0.2120   25.4203 H   0  0  0  0  0  0  0  0  0  0  0  0
   10.8765    1.8057   26.5831 H   0  0  0  0  0  0  0  0  0  0  0  0
    8.8718    3.4886   25.5109 H   0  0  0  0  0  0  0  0  0  0  0  0
    8.2163    1.8372   25.7740 H   0  0  0  0  0  0  0  0  0  0  0  0
    8.9087    4.3824   29.1384 H   0  0  0  0  0  0  0  0  0  0  0  0
    9.3286    4.9504   27.5146 H   0  0  0  0  0  0  0  0  0  0  0  0
   10.2761    3.6683   28.2764 H   0  0  0  0  0  0  0  0  0  0  0  0
    7.7229    0.9531   28.0344 H   0  0  0  0  0  0  0  0  0  0  0  0
    7.9457    1.9958   29.4483 H   0  0  0  0  0  0  0  0  0  0  0  0
    9.3510    1.3709   28.5779 H   0  0  0  0  0  0  0  0  0  0  0  0
    6.5823    3.8567   28.5546 H   0  0  0  0  0  0  0  0  0  0  0  0
    7.0349    4.7928   25.6807 H   0  0  0  0  0  0  0  0  0  0  0  0
    6.9855    5.7681   27.1560 H   0  0  0  0  0  0  0  0  0  0  0  0
    4.7913    5.1914   25.4879 H   0  0  0  0  0  0  0  0  0  0  0  0
    4.6506    5.7595   27.1624 H   0  0  0  0  0  0  0  0  0  0  0  0
    3.7970    3.2057   26.2620 H   0  0  0  0  0  0  0  0  0  0  0  0
    4.0781    3.6694   27.9538 H   0  0  0  0  0  0  0  0  0  0  0  0
    5.5767    1.9645   27.6412 H   0  0  0  0  0  0  0  0  0  0  0  0
  1  2  1  0
  2  3  2  0
  3  4  1  0
  4  5  2  0
  5  6  1  0
  6  7  2  0
  6  8  1  0
  8  9  1  0
  9 10  1  0
 10 11  2  0
 10 12  1  0
 12 13  1  0
 13 14  1  0
 14 15  1  0
 14 16  1  0
 14 17  1  0
 17 18  1  0
 18 19  1  0
 19 20  1  0
 20 21  1  0
  5 22  1  0
 22  2  1  0
 21 17  1  0
  1 23  1  0
  1 24  1  0
  1 25  1  0
  3 26  1  0
  4 27  1  0
  8 28  1  0
  9 29  1  0
  9 30  1  0
 12 31  1  0
 13 32  1  0
 13 33  1  0
 15 34  1  0
 15 35  1  0
 15 36  1  0
 16 37  1  0
 16 38  1  0
 16 39  1  0
 17 40  1  0
 18 41  1  0
 18 42  1  0
 19 43  1  0
 19 44  1  0
 20 45  1  0
 20 46  1  0
 21 47  1  0
M  END
>  <Energy>  (600) 
74.145297286936739

>  <compound_id>  (600) 
7959

>  <target_id>  (600) 
1

>  <reference_id>  (600) 
53

>  <inspiration_ids>  (600) 
[66, 53]

>  <energy_score>  (600) 
10.943053840009156

>  <distance_score>  (600) 
4.535240239420742

>  <path>  (600) 
/opt/xchem-fragalysis-2/maxwin/BulkDock/SCRATCH/511014/C7959-P53/C7959-P53.minimised.mol

>  <scratch_subdir>  (600) 
/opt/xchem-fragalysis-2/maxwin/BulkDock/SCRATCH/511014/C7959-P53

>  <fragmenstein_runtime>  (600) 
4.308865547180176

>  <fragmenstein_outcome>  (600) 
too moved

>  <fragmenstein_mode>  (600) 
expansion

>  <fragmenstein_error>  (600) 


$$$$
C7973-P66
     RDKit          3D

 46 47  0  0  0  0  0  0  0  0999 V2000
    0.3188    4.6357   27.8536 C   0  0  0  0  0  0  0  0  0  0  0  0
    1.0241    4.3148   26.5868 C   0  0  0  0  0  0  0  0  0  0  0  0
    1.1345    3.0907   25.9730 C   0  0  0  0  0  0  0  0  0  0  0  0
    1.9303    3.1680   24.7915 C   0  0  0  0  0  0  0  0  0  0  0  0
    2.4178    4.4416   24.5138 C   0  0  0  0  0  0  0  0  0  0  0  0
    3.1837    4.9404   23.2473 C   0  0  0  0  0  0  0  0  0  0  0  0
    4.8756    5.2697   23.2321 C   0  0  0  0  0  0  0  0  0  0  0  0
    5.7221    5.2597   21.7503 C   0  0  0  0  0  0  0  0  0  0  0  0
    5.0976    5.6571   20.8214 O   0  0  0  0  0  0  0  0  0  0  0  0
    7.2789    4.8126   21.8523 N   0  0  0  0  0  0  0  0  0  0  0  0
    8.4456    4.8769   20.7650 C   0  0  0  0  0  0  0  0  0  0  0  0
    9.5863    3.6579   20.3090 C   0  0  0  0  0  0  0  0  0  0  0  0
    8.8308    2.3699   20.6445 C   0  0  0  0  0  0  0  0  0  0  0  0
   10.9337    3.5662   21.1047 C   0  0  0  0  0  0  0  0  0  0  0  0
    9.9756    3.8264   18.7648 C   0  0  0  0  0  0  0  0  0  0  0  0
   10.2877    5.1516   18.1124 C   0  0  0  0  0  0  0  0  0  0  0  0
   10.8609    4.7404   16.7422 C   0  0  0  0  0  0  0  0  0  0  0  0
   11.4860    3.3928   16.9835 C   0  0  0  0  0  0  0  0  0  0  0  0
   11.2694    3.2182   18.4174 N   0  0  0  0  0  0  0  0  0  0  0  0
    1.8352    5.5431   25.7055 S   0  0  0  0  0  0  0  0  0  0  0  0
   -0.1498    3.7433   28.2823 H   0  0  0  0  0  0  0  0  0  0  0  0
    1.0165    5.0356   28.5968 H   0  0  0  0  0  0  0  0  0  0  0  0
   -0.4702    5.3758   27.6831 H   0  0  0  0  0  0  0  0  0  0  0  0
    0.6910    2.1819   26.3578 H   0  0  0  0  0  0  0  0  0  0  0  0
    2.1541    2.3236   24.1525 H   0  0  0  0  0  0  0  0  0  0  0  0
    2.7108    5.8743   22.9134 H   0  0  0  0  0  0  0  0  0  0  0  0
    2.9952    4.2242   22.4402 H   0  0  0  0  0  0  0  0  0  0  0  0
    4.9499    6.3162   23.5617 H   0  0  0  0  0  0  0  0  0  0  0  0
    5.4324    4.7127   23.9881 H   0  0  0  0  0  0  0  0  0  0  0  0
    7.5106    4.6022   22.8151 H   0  0  0  0  0  0  0  0  0  0  0  0
    9.0325    5.7577   21.0486 H   0  0  0  0  0  0  0  0  0  0  0  0
    7.8976    5.1283   19.8493 H   0  0  0  0  0  0  0  0  0  0  0  0
    8.5435    2.3824   21.6994 H   0  0  0  0  0  0  0  0  0  0  0  0
    7.9210    2.2768   20.0471 H   0  0  0  0  0  0  0  0  0  0  0  0
    9.4323    1.4708   20.5181 H   0  0  0  0  0  0  0  0  0  0  0  0
   11.5682    4.4340   20.8952 H   0  0  0  0  0  0  0  0  0  0  0  0
   11.4975    2.6497   20.9110 H   0  0  0  0  0  0  0  0  0  0  0  0
   10.7188    3.5876   22.1798 H   0  0  0  0  0  0  0  0  0  0  0  0
    9.1205    3.4555   18.1884 H   0  0  0  0  0  0  0  0  0  0  0  0
   11.0271    5.7272   18.6850 H   0  0  0  0  0  0  0  0  0  0  0  0
    9.4012    5.7823   17.9907 H   0  0  0  0  0  0  0  0  0  0  0  0
   11.5825    5.4831   16.3871 H   0  0  0  0  0  0  0  0  0  0  0  0
   10.0536    4.6681   16.0038 H   0  0  0  0  0  0  0  0  0  0  0  0
   10.9885    2.6620   16.3432 H   0  0  0  0  0  0  0  0  0  0  0  0
   12.5544    3.3945   16.7472 H   0  0  0  0  0  0  0  0  0  0  0  0
   11.2126    2.2803   18.7614 H   0  0  0  0  0  0  0  0  0  0  0  0
  1  2  1  0
  2  3  2  0
  3  4  1  0
  4  5  2  0
  5  6  1  0
  6  7  1  0
  7  8  1  0
  8  9  2  0
  8 10  1  0
 10 11  1  0
 11 12  1  0
 12 13  1  0
 12 14  1  0
 12 15  1  0
 15 16  1  0
 16 17  1  0
 17 18  1  0
 18 19  1  0
  5 20  1  0
 20  2  1  0
 19 15  1  0
  1 21  1  0
  1 22  1  0
  1 23  1  0
  3 24  1  0
  4 25  1  0
  6 26  1  0
  6 27  1  0
  7 28  1  0
  7 29  1  0
 10 30  1  0
 11 31  1  0
 11 32  1  0
 13 33  1  0
 13 34  1  0
 13 35  1  0
 14 36  1  0
 14 37  1  0
 14 38  1  0
 15 39  1  0
 16 40  1  0
 16 41  1  0
 17 42  1  0
 17 43  1  0
 18 44  1  0
 18 45  1  0
 19 46  1  0
M  END
>  <Energy>  (601) 
95.019267550342192

>  <compound_id>  (601) 
7973

>  <target_id>  (601) 
1

>  <reference_id>  (601) 
66

>  <inspiration_ids>  (601) 
[66, 53]

>  <energy_score>  (601) 
44.391696117337176

>  <distance_score>  (601) 
6.340307692044183

>  <path>  (601) 
/opt/xchem-fragalysis-2/maxwin/BulkDock/SCRATCH/511014/C7973-P66/C7973-P66.minimised.mol

>  <scratch_subdir>  (601) 
/opt/xchem-fragalysis-2/maxwin/BulkDock/SCRATCH/511014/C7973-P66

>  <fragmenstein_runtime>  (601) 
6.279486417770386

>  <fragmenstein_outcome>  (601) 
too moved

>  <fragmenstein_mode>  (601) 
expansion

>  <fragmenstein_error>  (601) 


$$$$
C7973-P53
     RDKit          3D

 46 47  0  0  0  0  0  0  0  0999 V2000
    1.3842    5.3782   26.3154 C   0  0  0  0  0  0  0  0  0  0  0  0
    2.3535    4.3794   25.7839 C   0  0  0  0  0  0  0  0  0  0  0  0
    3.2389    3.5924   26.4863 C   0  0  0  0  0  0  0  0  0  0  0  0
    3.9564    2.7010   25.6378 C   0  0  0  0  0  0  0  0  0  0  0  0
    3.6006    2.8254   24.3028 C   0  0  0  0  0  0  0  0  0  0  0  0
    3.8891    1.8593   23.1466 C   0  0  0  0  0  0  0  0  0  0  0  0
    5.2512    1.1761   22.1194 C   0  0  0  0  0  0  0  0  0  0  0  0
    6.6393    2.3751   21.0168 C   0  0  0  0  0  0  0  0  0  0  0  0
    6.3921    3.5534   21.0861 O   0  0  0  0  0  0  0  0  0  0  0  0
    7.7369    1.7258   20.1493 N   0  0  0  0  0  0  0  0  0  0  0  0
    8.6362    2.2909   19.1728 C   0  0  0  0  0  0  0  0  0  0  0  0
    9.4860    3.5795   19.5269 C   0  0  0  0  0  0  0  0  0  0  0  0
    8.7139    4.7036   20.2531 C   0  0  0  0  0  0  0  0  0  0  0  0
    9.8158    4.2273   18.1454 C   0  0  0  0  0  0  0  0  0  0  0  0
   10.7423    3.2431   20.3700 C   0  0  0  0  0  0  0  0  0  0  0  0
   11.7371    4.3492   20.6866 C   0  0  0  0  0  0  0  0  0  0  0  0
   12.6886    3.6431   21.6430 C   0  0  0  0  0  0  0  0  0  0  0  0
   11.8239    2.6112   22.3584 C   0  0  0  0  0  0  0  0  0  0  0  0
   10.5206    2.6573   21.6973 N   0  0  0  0  0  0  0  0  0  0  0  0
    2.4532    4.0911   24.1003 S   0  0  0  0  0  0  0  0  0  0  0  0
    1.4500    5.4461   27.4064 H   0  0  0  0  0  0  0  0  0  0  0  0
    0.3575    5.0970   26.0590 H   0  0  0  0  0  0  0  0  0  0  0  0
    1.5874    6.3729   25.9054 H   0  0  0  0  0  0  0  0  0  0  0  0
    3.3441    3.6270   27.5637 H   0  0  0  0  0  0  0  0  0  0  0  0
    4.6515    1.9501   25.9947 H   0  0  0  0  0  0  0  0  0  0  0  0
    3.0651    1.9796   22.4427 H   0  0  0  0  0  0  0  0  0  0  0  0
    3.8083    1.0293   23.8592 H   0  0  0  0  0  0  0  0  0  0  0  0
    4.6588    0.7776   21.2832 H   0  0  0  0  0  0  0  0  0  0  0  0
    5.2916    0.1025   22.4120 H   0  0  0  0  0  0  0  0  0  0  0  0
    7.6553    0.7275   20.2256 H   0  0  0  0  0  0  0  0  0  0  0  0
    7.9188    2.6504   18.4196 H   0  0  0  0  0  0  0  0  0  0  0  0
    9.1458    1.5113   18.6191 H   0  0  0  0  0  0  0  0  0  0  0  0
    9.2721    5.6479   20.2265 H   0  0  0  0  0  0  0  0  0  0  0  0
    7.7588    4.9127   19.7604 H   0  0  0  0  0  0  0  0  0  0  0  0
    8.5480    4.4848   21.3096 H   0  0  0  0  0  0  0  0  0  0  0  0
    9.9322    3.4917   17.3450 H   0  0  0  0  0  0  0  0  0  0  0  0
    8.9798    4.8526   17.8025 H   0  0  0  0  0  0  0  0  0  0  0  0
   10.6901    4.8831   18.1838 H   0  0  0  0  0  0  0  0  0  0  0  0
   11.3106    2.5135   19.8399 H   0  0  0  0  0  0  0  0  0  0  0  0
   11.2674    5.1980   21.1959 H   0  0  0  0  0  0  0  0  0  0  0  0
   12.2711    4.7234   19.8089 H   0  0  0  0  0  0  0  0  0  0  0  0
   13.1577    4.3471   22.3371 H   0  0  0  0  0  0  0  0  0  0  0  0
   13.4826    3.1398   21.0783 H   0  0  0  0  0  0  0  0  0  0  0  0
   12.2758    1.6165   22.2957 H   0  0  0  0  0  0  0  0  0  0  0  0
   11.7081    2.8587   23.4182 H   0  0  0  0  0  0  0  0  0  0  0  0
   10.1061    1.7331   21.6358 H   0  0  0  0  0  0  0  0  0  0  0  0
  1  2  1  0
  2  3  2  0
  3  4  1  0
  4  5  2  0
  5  6  1  0
  6  7  1  0
  7  8  1  0
  8  9  2  0
  8 10  1  0
 10 11  1  0
 11 12  1  0
 12 13  1  0
 12 14  1  0
 12 15  1  0
 15 16  1  0
 16 17  1  0
 17 18  1  0
 18 19  1  0
  5 20  1  0
 20  2  1  0
 19 15  1  0
  1 21  1  0
  1 22  1  0
  1 23  1  0
  3 24  1  0
  4 25  1  0
  6 26  1  0
  6 27  1  0
  7 28  1  0
  7 29  1  0
 10 30  1  0
 11 31  1  0
 11 32  1  0
 13 33  1  0
 13 34  1  0
 13 35  1  0
 14 36  1  0
 14 37  1  0
 14 38  1  0
 15 39  1  0
 16 40  1  0
 16 41  1  0
 17 42  1  0
 17 43  1  0
 18 44  1  0
 18 45  1  0
 19 46  1  0
M  END
>  <Energy>  (602) 
210.08163622903007

>  <compound_id>  (602) 
7973

>  <target_id>  (602) 
1

>  <reference_id>  (602) 
53

>  <inspiration_ids>  (602) 
[66, 53]

>  <energy_score>  (602) 
158.90524018412032

>  <distance_score>  (602) 
6.9788463069889275

>  <path>  (602) 
/opt/xchem-fragalysis-2/maxwin/BulkDock/SCRATCH/511014/C7973-P53/C7973-P53.minimised.mol

>  <scratch_subdir>  (602) 
/opt/xchem-fragalysis-2/maxwin/BulkDock/SCRATCH/511014/C7973-P53

>  <fragmenstein_runtime>  (602) 
11.340589761734009

>  <fragmenstein_outcome>  (602) 
too moved

>  <fragmenstein_mode>  (602) 
expansion

>  <fragmenstein_error>  (602) 


$$$$
C11561-P94
     RDKit          3D

 48 50  0  0  0  0  0  0  0  0999 V2000
   -6.1784   -3.5469   34.5080 C   0  0  0  0  0  0  0  0  0  0  0  0
   -6.3183   -4.6334   33.3981 N   0  0  0  0  0  0  0  0  0  0  0  0
   -7.5260   -6.3527   33.3675 C   0  0  0  0  0  0  0  0  0  0  0  0
   -8.9746   -7.8716   32.9084 C   0  0  0  0  0  0  0  0  0  0  0  0
   -9.1025  -10.0398   32.1710 C   0  0  0  0  0  0  0  0  0  0  0  0
   -9.8286  -11.1084   32.2651 N   0  0  0  0  0  0  0  0  0  0  0  0
  -10.6247   -9.5562   33.2780 C   0  0  0  0  0  0  0  0  0  0  0  0
   -9.4028  -12.9005   32.8802 C   0  0  0  0  0  0  0  0  0  0  0  0
   -8.3160  -12.9203   33.2710 O   0  0  0  0  0  0  0  0  0  0  0  0
  -10.2798  -14.7408   33.2217 C   0  0  0  0  0  0  0  0  0  0  0  0
   -9.5631  -15.9687   33.6318 C   0  0  0  0  0  0  0  0  0  0  0  0
  -10.0685  -17.0175   34.5735 C   0  0  0  0  0  0  0  0  0  0  0  0
  -11.4854  -17.2067   34.8269 C   0  0  0  0  0  0  0  0  0  0  0  0
  -12.3756  -16.2867   34.2172 C   0  0  0  0  0  0  0  0  0  0  0  0
  -11.6748  -15.1433   33.5750 C   0  0  0  0  0  0  0  0  0  0  0  0
  -13.6881  -16.5688   34.4745 N   0  0  0  0  0  0  0  0  0  0  0  0
  -13.6374  -17.7272   35.0927 C   0  0  0  0  0  0  0  0  0  0  0  0
  -12.3568  -18.2368   35.1250 N   0  0  0  0  0  0  0  0  0  0  0  0
  -12.1513  -19.6371   34.8404 C   0  0  0  0  0  0  0  0  0  0  0  0
   -5.8506   -3.2965   32.2442 C   0  0  0  0  0  0  0  0  0  0  0  0
   -4.7136   -2.2741   32.5553 C   0  0  0  0  0  0  0  0  0  0  0  0
   -3.3829   -2.1899   32.0404 C   0  0  0  0  0  0  0  0  0  0  0  0
   -2.8824   -1.0114   32.5251 C   0  0  0  0  0  0  0  0  0  0  0  0
   -3.8437   -0.3797   33.2306 O   0  0  0  0  0  0  0  0  0  0  0  0
   -4.9977   -1.1367   33.2193 N   0  0  0  0  0  0  0  0  0  0  0  0
   -5.2111   -3.1477   34.8029 H   0  0  0  0  0  0  0  0  0  0  0  0
   -6.7853   -2.6187   34.3996 H   0  0  0  0  0  0  0  0  0  0  0  0
   -6.6614   -4.2254   35.1819 H   0  0  0  0  0  0  0  0  0  0  0  0
   -7.5410   -6.3808   34.4491 H   0  0  0  0  0  0  0  0  0  0  0  0
   -6.9813   -6.8716   32.5844 H   0  0  0  0  0  0  0  0  0  0  0  0
   -9.6673   -7.6631   33.7116 H   0  0  0  0  0  0  0  0  0  0  0  0
   -9.6000   -7.2359   32.2632 H   0  0  0  0  0  0  0  0  0  0  0  0
   -8.3305  -10.8281   32.4882 H   0  0  0  0  0  0  0  0  0  0  0  0
   -8.8462  -10.3193   31.0544 H   0  0  0  0  0  0  0  0  0  0  0  0
  -10.0919   -9.3168   34.1749 H   0  0  0  0  0  0  0  0  0  0  0  0
  -11.0213   -8.6997   32.6839 H   0  0  0  0  0  0  0  0  0  0  0  0
  -11.5411   -9.8161   33.9329 H   0  0  0  0  0  0  0  0  0  0  0  0
   -8.4876  -16.0389   33.4213 H   0  0  0  0  0  0  0  0  0  0  0  0
   -9.3007  -17.6570   34.9562 H   0  0  0  0  0  0  0  0  0  0  0  0
  -11.4124  -15.0317   34.6423 H   0  0  0  0  0  0  0  0  0  0  0  0
  -14.4940  -18.3002   35.4254 H   0  0  0  0  0  0  0  0  0  0  0  0
  -11.4257  -19.7369   34.0326 H   0  0  0  0  0  0  0  0  0  0  0  0
  -13.0914  -20.0908   34.5128 H   0  0  0  0  0  0  0  0  0  0  0  0
  -11.8326  -20.1069   35.7570 H   0  0  0  0  0  0  0  0  0  0  0  0
   -5.6095   -3.6787   31.2438 H   0  0  0  0  0  0  0  0  0  0  0  0
   -6.7475   -2.6635   32.1565 H   0  0  0  0  0  0  0  0  0  0  0  0
   -2.8421   -2.8525   31.3863 H   0  0  0  0  0  0  0  0  0  0  0  0
   -1.9369   -0.4963   32.4443 H   0  0  0  0  0  0  0  0  0  0  0  0
  1  2  1  0
  2  3  1  0
  3  4  1  0
  4  5  1  0
  5  6  1  0
  6  7  1  0
  6  8  1  0
  8  9  2  0
  8 10  1  0
 10 11  2  0
 11 12  1  0
 12 13  2  0
 13 14  1  0
 14 15  2  0
 14 16  1  0
 16 17  2  0
 17 18  1  0
 18 19  1  0
  2 20  1  0
 20 21  1  0
 21 22  1  0
 22 23  2  0
 23 24  1  0
 24 25  1  0
 15 10  1  0
 25 21  2  0
 18 13  1  0
  1 26  1  0
  1 27  1  0
  1 28  1  0
  3 29  1  0
  3 30  1  0
  4 31  1  0
  4 32  1  0
  5 33  1  0
  5 34  1  0
  7 35  1  0
  7 36  1  0
  7 37  1  0
 11 38  1  0
 12 39  1  0
 15 40  1  0
 17 41  1  0
 19 42  1  0
 19 43  1  0
 19 44  1  0
 20 45  1  0
 20 46  1  0
 22 47  1  0
 23 48  1  0
M  END
>  <Energy>  (603) 
1271.9873109481773

>  <compound_id>  (603) 
11561

>  <target_id>  (603) 
1

>  <reference_id>  (603) 
94

>  <inspiration_ids>  (603) 
[94, 59]

>  <energy_score>  (603) 
1194.755241906595

>  <distance_score>  (603) 
7.184978505777627

>  <path>  (603) 
/opt/xchem-fragalysis-2/maxwin/BulkDock/SCRATCH/511014/C11561-P94/C11561-P94.minimised.mol

>  <scratch_subdir>  (603) 
/opt/xchem-fragalysis-2/maxwin/BulkDock/SCRATCH/511014/C11561-P94

>  <fragmenstein_runtime>  (603) 
13.214609146118164

>  <fragmenstein_outcome>  (603) 
too moved

>  <fragmenstein_mode>  (603) 
expansion

>  <fragmenstein_error>  (603) 


$$$$
C11561-P59
     RDKit          3D

 48 50  0  0  0  0  0  0  0  0999 V2000
  -11.3364   -6.5929   34.8691 C   0  0  0  0  0  0  0  0  0  0  0  0
  -10.2183   -7.1441   33.7670 N   0  0  0  0  0  0  0  0  0  0  0  0
  -11.2173   -8.7331   33.6273 C   0  0  0  0  0  0  0  0  0  0  0  0
  -12.5229  -10.0713   34.4538 C   0  0  0  0  0  0  0  0  0  0  0  0
  -13.7359  -11.7272   34.3217 C   0  0  0  0  0  0  0  0  0  0  0  0
  -14.0899  -13.5970   33.7855 N   0  0  0  0  0  0  0  0  0  0  0  0
  -14.7882  -12.8950   32.6392 C   0  0  0  0  0  0  0  0  0  0  0  0
  -12.9989  -14.9022   33.1575 C   0  0  0  0  0  0  0  0  0  0  0  0
  -11.8948  -14.5809   32.9425 O   0  0  0  0  0  0  0  0  0  0  0  0
  -13.2269  -16.5817   32.6210 C   0  0  0  0  0  0  0  0  0  0  0  0
  -12.4965  -16.5762   30.7915 C   0  0  0  0  0  0  0  0  0  0  0  0
  -11.3177  -17.9187   29.8384 C   0  0  0  0  0  0  0  0  0  0  0  0
  -10.8713  -19.5868   31.1130 C   0  0  0  0  0  0  0  0  0  0  0  0
  -10.9784  -19.1171   32.8442 C   0  0  0  0  0  0  0  0  0  0  0  0
  -12.3326  -17.9980   33.6418 C   0  0  0  0  0  0  0  0  0  0  0  0
  -10.0813  -20.1916   33.2506 N   0  0  0  0  0  0  0  0  0  0  0  0
  -10.2438  -21.3742   32.0978 C   0  0  0  0  0  0  0  0  0  0  0  0
  -11.0232  -20.9371   30.9276 N   0  0  0  0  0  0  0  0  0  0  0  0
  -11.5551  -21.4331   29.6860 C   0  0  0  0  0  0  0  0  0  0  0  0
   -8.2965   -6.7263   33.9429 C   0  0  0  0  0  0  0  0  0  0  0  0
   -6.6201   -5.5651   34.1656 C   0  0  0  0  0  0  0  0  0  0  0  0
   -5.2984   -4.3679   33.1842 C   0  0  0  0  0  0  0  0  0  0  0  0
   -4.9657   -3.1384   33.9086 C   0  0  0  0  0  0  0  0  0  0  0  0
   -5.5890   -3.3544   35.1173 O   0  0  0  0  0  0  0  0  0  0  0  0
   -6.7043   -4.7272   35.2468 N   0  0  0  0  0  0  0  0  0  0  0  0
  -11.5802   -7.1809   35.7687 H   0  0  0  0  0  0  0  0  0  0  0  0
  -11.0877   -5.6219   35.3090 H   0  0  0  0  0  0  0  0  0  0  0  0
  -12.3047   -6.7573   34.4001 H   0  0  0  0  0  0  0  0  0  0  0  0
  -10.4650   -9.3350   33.1777 H   0  0  0  0  0  0  0  0  0  0  0  0
  -11.8907   -8.2634   32.8886 H   0  0  0  0  0  0  0  0  0  0  0  0
  -12.0077  -10.3240   35.3898 H   0  0  0  0  0  0  0  0  0  0  0  0
  -13.3032   -9.3489   34.7424 H   0  0  0  0  0  0  0  0  0  0  0  0
  -13.6365  -11.9961   35.3887 H   0  0  0  0  0  0  0  0  0  0  0  0
  -14.7401  -11.2681   34.3252 H   0  0  0  0  0  0  0  0  0  0  0  0
  -14.5520  -13.4291   31.7105 H   0  0  0  0  0  0  0  0  0  0  0  0
  -15.8468  -13.1231   32.8252 H   0  0  0  0  0  0  0  0  0  0  0  0
  -14.7875  -11.8129   32.4527 H   0  0  0  0  0  0  0  0  0  0  0  0
  -12.8728  -15.6973   30.2317 H   0  0  0  0  0  0  0  0  0  0  0  0
  -11.9744  -18.1076   28.9621 H   0  0  0  0  0  0  0  0  0  0  0  0
  -12.1227  -17.7984   34.6991 H   0  0  0  0  0  0  0  0  0  0  0  0
  -10.2826  -22.4336   32.3793 H   0  0  0  0  0  0  0  0  0  0  0  0
  -11.8644  -22.4371   29.7126 H   0  0  0  0  0  0  0  0  0  0  0  0
  -12.4419  -20.8502   29.4225 H   0  0  0  0  0  0  0  0  0  0  0  0
  -10.8451  -21.3848   28.8720 H   0  0  0  0  0  0  0  0  0  0  0  0
   -8.2463   -6.9434   34.9972 H   0  0  0  0  0  0  0  0  0  0  0  0
   -7.9241   -7.2852   33.1221 H   0  0  0  0  0  0  0  0  0  0  0  0
   -5.0363   -4.1390   32.1693 H   0  0  0  0  0  0  0  0  0  0  0  0
   -4.4048   -2.2307   33.7462 H   0  0  0  0  0  0  0  0  0  0  0  0
  1  2  1  0
  2  3  1  0
  3  4  1  0
  4  5  1  0
  5  6  1  0
  6  7  1  0
  6  8  1  0
  8  9  2  0
  8 10  1  0
 10 11  2  0
 11 12  1  0
 12 13  2  0
 13 14  1  0
 14 15  2  0
 14 16  1  0
 16 17  2  0
 17 18  1  0
 18 19  1  0
  2 20  1  0
 20 21  1  0
 21 22  1  0
 22 23  2  0
 23 24  1  0
 24 25  1  0
 15 10  1  0
 25 21  2  0
 18 13  1  0
  1 26  1  0
  1 27  1  0
  1 28  1  0
  3 29  1  0
  3 30  1  0
  4 31  1  0
  4 32  1  0
  5 33  1  0
  5 34  1  0
  7 35  1  0
  7 36  1  0
  7 37  1  0
 11 38  1  0
 12 39  1  0
 15 40  1  0
 17 41  1  0
 19 42  1  0
 19 43  1  0
 19 44  1  0
 20 45  1  0
 20 46  1  0
 22 47  1  0
 23 48  1  0
M  END
>  <Energy>  (604) 
1739.3927144267186

>  <compound_id>  (604) 
11561

>  <target_id>  (604) 
1

>  <reference_id>  (604) 
59

>  <inspiration_ids>  (604) 
[94, 59]

>  <energy_score>  (604) 
1662.1606453851537

>  <distance_score>  (604) 
8.295976554124211

>  <path>  (604) 
/opt/xchem-fragalysis-2/maxwin/BulkDock/SCRATCH/511014/C11561-P59/C11561-P59.minimised.mol

>  <scratch_subdir>  (604) 
/opt/xchem-fragalysis-2/maxwin/BulkDock/SCRATCH/511014/C11561-P59

>  <fragmenstein_runtime>  (604) 
18.13045072555542

>  <fragmenstein_outcome>  (604) 
too moved

>  <fragmenstein_mode>  (604) 
expansion

>  <fragmenstein_error>  (604) 


$$$$
C11563-P94
     RDKit          3D

 48 50  0  0  0  0  0  0  0  0999 V2000
  -14.5807   -7.0577   37.8787 C   0  0  0  0  0  0  0  0  0  0  0  0
  -13.3364   -7.8050   38.3275 C   0  0  0  0  0  0  0  0  0  0  0  0
  -12.0902   -6.9301   37.8613 C   0  0  0  0  0  0  0  0  0  0  0  0
  -11.9163   -5.4692   38.1816 N   0  0  0  0  0  0  0  0  0  0  0  0
  -11.8772   -4.5926   36.9702 C   0  0  0  0  0  0  0  0  0  0  0  0
  -11.1706   -3.2526   37.1952 C   0  0  0  0  0  0  0  0  0  0  0  0
  -10.9557   -2.5043   38.3789 C   0  0  0  0  0  0  0  0  0  0  0  0
  -10.1511   -1.4551   38.0012 C   0  0  0  0  0  0  0  0  0  0  0  0
   -9.8917   -1.5410   36.6778 O   0  0  0  0  0  0  0  0  0  0  0  0
  -10.5413   -2.6426   36.1703 N   0  0  0  0  0  0  0  0  0  0  0  0
  -13.1893   -9.3810   37.8456 C   0  0  0  0  0  0  0  0  0  0  0  0
  -14.2122  -10.5237   37.9165 N   0  0  0  0  0  0  0  0  0  0  0  0
  -14.6643  -11.5099   36.8648 C   0  0  0  0  0  0  0  0  0  0  0  0
  -14.3897  -11.5849   35.6915 O   0  0  0  0  0  0  0  0  0  0  0  0
  -15.5947  -12.7597   37.3145 C   0  0  0  0  0  0  0  0  0  0  0  0
  -16.4713  -12.4585   38.5189 C   0  0  0  0  0  0  0  0  0  0  0  0
  -15.0663  -14.1971   37.3297 N   0  0  0  0  0  0  0  0  0  0  0  0
  -15.1675  -15.0340   38.4343 C   0  0  0  0  0  0  0  0  0  0  0  0
  -14.7457  -16.2593   38.2257 N   0  0  0  0  0  0  0  0  0  0  0  0
  -14.3591  -16.2787   36.9195 C   0  0  0  0  0  0  0  0  0  0  0  0
  -13.7775  -17.3516   36.2174 C   0  0  0  0  0  0  0  0  0  0  0  0
  -13.3632  -17.1442   34.9110 C   0  0  0  0  0  0  0  0  0  0  0  0
  -13.5810  -15.9060   34.3095 C   0  0  0  0  0  0  0  0  0  0  0  0
  -14.2367  -14.8438   34.9673 C   0  0  0  0  0  0  0  0  0  0  0  0
  -14.5825  -15.0311   36.3101 C   0  0  0  0  0  0  0  0  0  0  0  0
  -14.5090   -6.7033   36.8474 H   0  0  0  0  0  0  0  0  0  0  0  0
  -14.7345   -6.1699   38.5033 H   0  0  0  0  0  0  0  0  0  0  0  0
  -15.4724   -7.6827   37.9874 H   0  0  0  0  0  0  0  0  0  0  0  0
  -13.3476   -7.8341   39.4250 H   0  0  0  0  0  0  0  0  0  0  0  0
  -12.0464   -7.0570   36.7773 H   0  0  0  0  0  0  0  0  0  0  0  0
  -11.2415   -7.4267   38.3421 H   0  0  0  0  0  0  0  0  0  0  0  0
  -11.0346   -5.3729   38.6859 H   0  0  0  0  0  0  0  0  0  0  0  0
  -12.9089   -4.4038   36.6583 H   0  0  0  0  0  0  0  0  0  0  0  0
  -11.3719   -5.1160   36.1540 H   0  0  0  0  0  0  0  0  0  0  0  0
  -11.3158   -2.7207   39.3744 H   0  0  0  0  0  0  0  0  0  0  0  0
   -9.7015   -0.6203   38.5190 H   0  0  0  0  0  0  0  0  0  0  0  0
  -12.3693   -9.7710   38.4648 H   0  0  0  0  0  0  0  0  0  0  0  0
  -12.7799   -9.3925   36.8427 H   0  0  0  0  0  0  0  0  0  0  0  0
  -14.5732  -10.8074   38.8148 H   0  0  0  0  0  0  0  0  0  0  0  0
  -16.3090  -12.8320   36.4764 H   0  0  0  0  0  0  0  0  0  0  0  0
  -15.8937  -12.4471   39.4494 H   0  0  0  0  0  0  0  0  0  0  0  0
  -17.2821  -13.1877   38.6258 H   0  0  0  0  0  0  0  0  0  0  0  0
  -16.9365  -11.4714   38.4181 H   0  0  0  0  0  0  0  0  0  0  0  0
  -15.5564  -14.6965   39.3846 H   0  0  0  0  0  0  0  0  0  0  0  0
  -13.6082  -18.2975   36.7175 H   0  0  0  0  0  0  0  0  0  0  0  0
  -12.8391  -17.9323   34.3798 H   0  0  0  0  0  0  0  0  0  0  0  0
  -13.2007  -15.7409   33.3022 H   0  0  0  0  0  0  0  0  0  0  0  0
  -14.3762  -13.8864   34.4704 H   0  0  0  0  0  0  0  0  0  0  0  0
  1  2  1  0
  2  3  1  0
  3  4  1  0
  4  5  1  0
  5  6  1  0
  6  7  1  0
  7  8  2  0
  8  9  1  0
  9 10  1  0
  2 11  1  0
 11 12  1  0
 12 13  1  0
 13 14  2  0
 13 15  1  0
 15 16  1  0
 15 17  1  0
 17 18  1  0
 18 19  2  0
 19 20  1  0
 20 21  2  0
 21 22  1  0
 22 23  2  0
 23 24  1  0
 24 25  2  0
 10  6  2  0
 25 17  1  0
 25 20  1  0
  1 26  1  0
  1 27  1  0
  1 28  1  0
  2 29  1  0
  3 30  1  0
  3 31  1  0
  4 32  1  0
  5 33  1  0
  5 34  1  0
  7 35  1  0
  8 36  1  0
 11 37  1  0
 11 38  1  0
 12 39  1  0
 15 40  1  0
 16 41  1  0
 16 42  1  0
 16 43  1  0
 18 44  1  0
 21 45  1  0
 22 46  1  0
 23 47  1  0
 24 48  1  0
M  END
>  <Energy>  (605) 
91.157397467113057

>  <compound_id>  (605) 
11563

>  <target_id>  (605) 
1

>  <reference_id>  (605) 
94

>  <inspiration_ids>  (605) 
[94, 59]

>  <energy_score>  (605) 
26.143857917266757

>  <distance_score>  (605) 
11.374183300734277

>  <path>  (605) 
/opt/xchem-fragalysis-2/maxwin/BulkDock/SCRATCH/511014/C11563-P94/C11563-P94.minimised.mol

>  <scratch_subdir>  (605) 
/opt/xchem-fragalysis-2/maxwin/BulkDock/SCRATCH/511014/C11563-P94

>  <fragmenstein_runtime>  (605) 
27.17194390296936

>  <fragmenstein_outcome>  (605) 
too moved

>  <fragmenstein_mode>  (605) 
expansion

>  <fragmenstein_error>  (605) 


$$$$
C11563-P59
     RDKit          3D

 48 50  0  0  0  0  0  0  0  0999 V2000
  -15.1372   -4.8965   36.4345 C   0  0  0  0  0  0  0  0  0  0  0  0
  -14.2620   -5.9420   35.7423 C   0  0  0  0  0  0  0  0  0  0  0  0
  -12.7540   -5.3410   35.6698 C   0  0  0  0  0  0  0  0  0  0  0  0
  -12.3044   -4.0897   36.4004 N   0  0  0  0  0  0  0  0  0  0  0  0
  -11.0523   -3.5556   35.7984 C   0  0  0  0  0  0  0  0  0  0  0  0
  -10.4832   -2.2248   36.2484 C   0  0  0  0  0  0  0  0  0  0  0  0
   -9.1349   -1.7548   36.1064 C   0  0  0  0  0  0  0  0  0  0  0  0
   -9.1798   -0.4276   36.4298 C   0  0  0  0  0  0  0  0  0  0  0  0
  -10.4478   -0.1047   36.7653 O   0  0  0  0  0  0  0  0  0  0  0  0
  -11.2670   -1.2190   36.6558 N   0  0  0  0  0  0  0  0  0  0  0  0
  -14.5973   -7.4484   36.3488 C   0  0  0  0  0  0  0  0  0  0  0  0
  -15.1741   -8.5983   35.4828 N   0  0  0  0  0  0  0  0  0  0  0  0
  -15.7739   -9.9296   35.8801 C   0  0  0  0  0  0  0  0  0  0  0  0
  -16.0210  -10.3822   36.9714 O   0  0  0  0  0  0  0  0  0  0  0  0
  -16.0870  -10.9782   34.6262 C   0  0  0  0  0  0  0  0  0  0  0  0
  -14.9003  -11.0764   33.7174 C   0  0  0  0  0  0  0  0  0  0  0  0
  -16.5713  -12.4176   34.9476 N   0  0  0  0  0  0  0  0  0  0  0  0
  -17.7993  -12.6684   35.5257 C   0  0  0  0  0  0  0  0  0  0  0  0
  -18.0457  -13.9487   35.7117 N   0  0  0  0  0  0  0  0  0  0  0  0
  -16.9411  -14.6128   35.2727 C   0  0  0  0  0  0  0  0  0  0  0  0
  -16.6436  -15.9950   35.3594 C   0  0  0  0  0  0  0  0  0  0  0  0
  -15.4044  -16.4751   34.9344 C   0  0  0  0  0  0  0  0  0  0  0  0
  -14.5048  -15.5959   34.3559 C   0  0  0  0  0  0  0  0  0  0  0  0
  -14.8192  -14.2288   34.2210 C   0  0  0  0  0  0  0  0  0  0  0  0
  -16.0299  -13.7097   34.7167 C   0  0  0  0  0  0  0  0  0  0  0  0
  -14.8428   -4.7602   37.4801 H   0  0  0  0  0  0  0  0  0  0  0  0
  -15.0909   -3.9303   35.9216 H   0  0  0  0  0  0  0  0  0  0  0  0
  -16.1870   -5.2103   36.4239 H   0  0  0  0  0  0  0  0  0  0  0  0
  -14.6215   -5.9818   34.7046 H   0  0  0  0  0  0  0  0  0  0  0  0
  -12.0382   -6.1328   35.8774 H   0  0  0  0  0  0  0  0  0  0  0  0
  -12.6530   -5.0923   34.6079 H   0  0  0  0  0  0  0  0  0  0  0  0
  -13.0105   -3.3569   36.3071 H   0  0  0  0  0  0  0  0  0  0  0  0
  -10.3117   -4.3311   35.9719 H   0  0  0  0  0  0  0  0  0  0  0  0
  -11.2468   -3.4118   34.7354 H   0  0  0  0  0  0  0  0  0  0  0  0
   -8.2511   -2.2552   35.7550 H   0  0  0  0  0  0  0  0  0  0  0  0
   -8.4638    0.3807   36.4541 H   0  0  0  0  0  0  0  0  0  0  0  0
  -13.7000   -7.8620   36.8023 H   0  0  0  0  0  0  0  0  0  0  0  0
  -15.3200   -7.3448   37.1669 H   0  0  0  0  0  0  0  0  0  0  0  0
  -15.0308   -8.5831   34.4833 H   0  0  0  0  0  0  0  0  0  0  0  0
  -16.9432  -10.5532   34.0855 H   0  0  0  0  0  0  0  0  0  0  0  0
  -14.6683  -10.0969   33.3046 H   0  0  0  0  0  0  0  0  0  0  0  0
  -14.0151  -11.3947   34.2704 H   0  0  0  0  0  0  0  0  0  0  0  0
  -15.1085  -11.7420   32.8771 H   0  0  0  0  0  0  0  0  0  0  0  0
  -18.4696  -11.8641   35.8024 H   0  0  0  0  0  0  0  0  0  0  0  0
  -17.3703  -16.6578   35.8190 H   0  0  0  0  0  0  0  0  0  0  0  0
  -15.1512  -17.5238   35.0613 H   0  0  0  0  0  0  0  0  0  0  0  0
  -13.5449  -15.9600   33.9904 H   0  0  0  0  0  0  0  0  0  0  0  0
  -14.1096  -13.5776   33.7462 H   0  0  0  0  0  0  0  0  0  0  0  0
  1  2  1  0
  2  3  1  0
  3  4  1  0
  4  5  1  0
  5  6  1  0
  6  7  1  0
  7  8  2  0
  8  9  1  0
  9 10  1  0
  2 11  1  0
 11 12  1  0
 12 13  1  0
 13 14  2  0
 13 15  1  0
 15 16  1  0
 15 17  1  0
 17 18  1  0
 18 19  2  0
 19 20  1  0
 20 21  2  0
 21 22  1  0
 22 23  2  0
 23 24  1  0
 24 25  2  0
 10  6  2  0
 25 17  1  0
 25 20  1  0
  1 26  1  0
  1 27  1  0
  1 28  1  0
  2 29  1  0
  3 30  1  0
  3 31  1  0
  4 32  1  0
  5 33  1  0
  5 34  1  0
  7 35  1  0
  8 36  1  0
 11 37  1  0
 11 38  1  0
 12 39  1  0
 15 40  1  0
 16 41  1  0
 16 42  1  0
 16 43  1  0
 18 44  1  0
 21 45  1  0
 22 46  1  0
 23 47  1  0
 24 48  1  0
M  END
>  <Energy>  (606) 
100.75110219755337

>  <compound_id>  (606) 
11563

>  <target_id>  (606) 
1

>  <reference_id>  (606) 
59

>  <inspiration_ids>  (606) 
[94, 59]

>  <energy_score>  (606) 
35.73756264770725

>  <distance_score>  (606) 
11.309325005322114

>  <path>  (606) 
/opt/xchem-fragalysis-2/maxwin/BulkDock/SCRATCH/511014/C11563-P59/C11563-P59.minimised.mol

>  <scratch_subdir>  (606) 
/opt/xchem-fragalysis-2/maxwin/BulkDock/SCRATCH/511014/C11563-P59

>  <fragmenstein_runtime>  (606) 
22.75087547302246

>  <fragmenstein_outcome>  (606) 
too moved

>  <fragmenstein_mode>  (606) 
expansion

>  <fragmenstein_error>  (606) 


$$$$
C11575-P94
     RDKit          3D

 41 44  0  0  0  0  0  0  0  0999 V2000
   -7.1219  -16.4765   31.7843 C   0  0  0  0  0  0  0  0  0  0  0  0
   -6.6754  -15.9993   30.5603 C   0  0  0  0  0  0  0  0  0  0  0  0
   -6.6712  -14.6281   30.3340 C   0  0  0  0  0  0  0  0  0  0  0  0
   -7.0721  -13.7959   31.4230 C   0  0  0  0  0  0  0  0  0  0  0  0
   -6.9783  -12.0952   31.8903 N   0  0  0  0  0  0  0  0  0  0  0  0
   -8.4720  -11.4220   32.5902 C   0  0  0  0  0  0  0  0  0  0  0  0
   -9.4314   -9.8714   32.6359 N   0  0  0  0  0  0  0  0  0  0  0  0
  -10.4810   -9.1792   33.6917 C   0  0  0  0  0  0  0  0  0  0  0  0
  -10.4829   -7.0685   33.7369 C   0  0  0  0  0  0  0  0  0  0  0  0
   -8.6686   -6.3659   34.0459 C   0  0  0  0  0  0  0  0  0  0  0  0
   -7.7193   -6.7086   32.5665 C   0  0  0  0  0  0  0  0  0  0  0  0
   -6.5539   -6.0245   31.2521 N   0  0  0  0  0  0  0  0  0  0  0  0
   -6.0729   -4.2473   30.5231 C   0  0  0  0  0  0  0  0  0  0  0  0
   -5.3879   -3.0966   31.5019 C   0  0  0  0  0  0  0  0  0  0  0  0
   -4.0617   -2.5240   31.5473 C   0  0  0  0  0  0  0  0  0  0  0  0
   -4.0769   -1.6345   32.5872 C   0  0  0  0  0  0  0  0  0  0  0  0
   -5.3262   -1.5745   33.0867 O   0  0  0  0  0  0  0  0  0  0  0  0
   -6.1439   -2.4438   32.4030 N   0  0  0  0  0  0  0  0  0  0  0  0
   -9.0374   -7.8779   32.7985 C   0  0  0  0  0  0  0  0  0  0  0  0
   -8.7357  -12.7324   33.1371 N   0  0  0  0  0  0  0  0  0  0  0  0
   -7.9478  -14.2708   32.4647 C   0  0  0  0  0  0  0  0  0  0  0  0
   -7.9551  -15.6923   32.6313 C   0  0  0  0  0  0  0  0  0  0  0  0
   -6.9168  -17.5135   32.0422 H   0  0  0  0  0  0  0  0  0  0  0  0
   -6.2302  -16.6772   29.8377 H   0  0  0  0  0  0  0  0  0  0  0  0
   -6.3147  -14.1962   29.4212 H   0  0  0  0  0  0  0  0  0  0  0  0
   -6.2000  -11.5453   31.5583 H   0  0  0  0  0  0  0  0  0  0  0  0
  -11.3425   -9.6707   33.3204 H   0  0  0  0  0  0  0  0  0  0  0  0
  -10.5591   -9.6176   34.7138 H   0  0  0  0  0  0  0  0  0  0  0  0
  -11.1419   -6.5884   34.4946 H   0  0  0  0  0  0  0  0  0  0  0  0
  -10.7617   -6.8881   32.6982 H   0  0  0  0  0  0  0  0  0  0  0  0
   -8.0658   -6.7985   34.8070 H   0  0  0  0  0  0  0  0  0  0  0  0
   -8.5699   -5.5942   34.8343 H   0  0  0  0  0  0  0  0  0  0  0  0
   -6.8348   -7.1027   33.0451 H   0  0  0  0  0  0  0  0  0  0  0  0
   -6.4971   -6.5000   30.3885 H   0  0  0  0  0  0  0  0  0  0  0  0
   -5.7578   -4.3655   29.4912 H   0  0  0  0  0  0  0  0  0  0  0  0
   -6.9964   -3.6706   30.2644 H   0  0  0  0  0  0  0  0  0  0  0  0
   -3.1900   -2.7270   30.9431 H   0  0  0  0  0  0  0  0  0  0  0  0
   -3.3458   -0.9909   33.0525 H   0  0  0  0  0  0  0  0  0  0  0  0
   -9.1537   -8.0269   33.8123 H   0  0  0  0  0  0  0  0  0  0  0  0
   -8.0782   -7.8431   33.1143 H   0  0  0  0  0  0  0  0  0  0  0  0
   -8.4752  -16.1709   33.4562 H   0  0  0  0  0  0  0  0  0  0  0  0
  1  2  2  0
  2  3  1  0
  3  4  2  0
  4  5  1  0
  5  6  1  0
  6  7  1  0
  7  8  1  0
  8  9  1  0
  9 10  1  0
 10 11  1  0
 11 12  1  0
 12 13  1  0
 13 14  1  0
 14 15  1  0
 15 16  2  0
 16 17  1  0
 17 18  1  0
 11 19  1  0
  6 20  2  0
 20 21  1  0
 21 22  2  0
 22  1  1  0
 21  4  1  0
 19  7  1  0
 18 14  2  0
  1 23  1  0
  2 24  1  0
  3 25  1  0
  5 26  1  0
  8 27  1  0
  8 28  1  0
  9 29  1  0
  9 30  1  0
 10 31  1  0
 10 32  1  0
 11 33  1  0
 12 34  1  0
 13 35  1  0
 13 36  1  0
 15 37  1  0
 16 38  1  0
 19 39  1  0
 19 40  1  0
 22 41  1  0
M  END
>  <Energy>  (607) 
1171.50308657858

>  <compound_id>  (607) 
11575

>  <target_id>  (607) 
1

>  <reference_id>  (607) 
94

>  <inspiration_ids>  (607) 
[94, 59]

>  <energy_score>  (607) 
1094.7206648300328

>  <distance_score>  (607) 
8.5270628284461

>  <path>  (607) 
/opt/xchem-fragalysis-2/maxwin/BulkDock/SCRATCH/511014/C11575-P94/C11575-P94.minimised.mol

>  <scratch_subdir>  (607) 
/opt/xchem-fragalysis-2/maxwin/BulkDock/SCRATCH/511014/C11575-P94

>  <fragmenstein_runtime>  (607) 
12.287880897521973

>  <fragmenstein_outcome>  (607) 
too moved

>  <fragmenstein_mode>  (607) 
expansion

>  <fragmenstein_error>  (607) 


$$$$
C11575-P59
     RDKit          3D

 41 44  0  0  0  0  0  0  0  0999 V2000
  -12.5197  -19.9132   29.1996 C   0  0  0  0  0  0  0  0  0  0  0  0
  -11.7651  -20.8994   29.9501 C   0  0  0  0  0  0  0  0  0  0  0  0
  -10.9815  -20.5217   31.1352 C   0  0  0  0  0  0  0  0  0  0  0  0
  -10.5036  -18.9515   31.8962 C   0  0  0  0  0  0  0  0  0  0  0  0
  -10.0521  -17.2744   33.1252 N   0  0  0  0  0  0  0  0  0  0  0  0
   -9.9914  -15.3034   32.4853 C   0  0  0  0  0  0  0  0  0  0  0  0
   -9.5884  -13.3229   32.9083 N   0  0  0  0  0  0  0  0  0  0  0  0
   -9.7050  -11.3846   32.1091 C   0  0  0  0  0  0  0  0  0  0  0  0
  -10.7905   -9.7686   32.8942 C   0  0  0  0  0  0  0  0  0  0  0  0
  -10.2833   -8.4426   33.2233 C   0  0  0  0  0  0  0  0  0  0  0  0
   -9.5715   -9.5088   33.9763 C   0  0  0  0  0  0  0  0  0  0  0  0
   -8.7991   -7.5508   34.0058 N   0  0  0  0  0  0  0  0  0  0  0  0
   -7.6804   -6.3204   35.0584 C   0  0  0  0  0  0  0  0  0  0  0  0
   -7.0410   -4.4242   35.3484 C   0  0  0  0  0  0  0  0  0  0  0  0
   -5.7095   -3.1301   35.0688 C   0  0  0  0  0  0  0  0  0  0  0  0
   -6.2258   -1.8858   35.3274 C   0  0  0  0  0  0  0  0  0  0  0  0
   -7.4484   -1.9959   35.8339 O   0  0  0  0  0  0  0  0  0  0  0  0
   -7.8941   -3.2540   36.0993 N   0  0  0  0  0  0  0  0  0  0  0  0
   -8.6885  -11.6690   33.9055 C   0  0  0  0  0  0  0  0  0  0  0  0
  -10.7704  -15.8789   30.9590 N   0  0  0  0  0  0  0  0  0  0  0  0
  -10.9343  -17.7398   30.1047 C   0  0  0  0  0  0  0  0  0  0  0  0
  -12.1058  -18.1577   29.1079 C   0  0  0  0  0  0  0  0  0  0  0  0
  -12.9856  -20.4723   28.4134 H   0  0  0  0  0  0  0  0  0  0  0  0
  -11.8297  -21.9356   29.6340 H   0  0  0  0  0  0  0  0  0  0  0  0
  -10.5385  -21.3691   31.6611 H   0  0  0  0  0  0  0  0  0  0  0  0
  -10.6845  -17.2981   33.9002 H   0  0  0  0  0  0  0  0  0  0  0  0
   -8.6287  -11.1510   32.0642 H   0  0  0  0  0  0  0  0  0  0  0  0
   -9.6753  -10.8369   31.1393 H   0  0  0  0  0  0  0  0  0  0  0  0
  -11.6287   -9.9964   33.6657 H   0  0  0  0  0  0  0  0  0  0  0  0
  -11.0472   -9.1822   32.0145 H   0  0  0  0  0  0  0  0  0  0  0  0
  -10.7392   -7.5909   33.8181 H   0  0  0  0  0  0  0  0  0  0  0  0
  -10.2262   -7.5985   32.4742 H   0  0  0  0  0  0  0  0  0  0  0  0
   -9.2994   -9.3706   32.9289 H   0  0  0  0  0  0  0  0  0  0  0  0
   -8.3770   -7.4098   33.0893 H   0  0  0  0  0  0  0  0  0  0  0  0
   -7.1621   -6.2509   34.1166 H   0  0  0  0  0  0  0  0  0  0  0  0
   -8.6374   -5.9430   35.3910 H   0  0  0  0  0  0  0  0  0  0  0  0
   -4.8287   -3.2101   34.4786 H   0  0  0  0  0  0  0  0  0  0  0  0
   -5.8688   -0.8802   35.1632 H   0  0  0  0  0  0  0  0  0  0  0  0
   -8.5266  -11.7415   34.9770 H   0  0  0  0  0  0  0  0  0  0  0  0
   -7.6915  -11.7540   33.4143 H   0  0  0  0  0  0  0  0  0  0  0  0
  -12.4692  -17.3443   28.5032 H   0  0  0  0  0  0  0  0  0  0  0  0
  1  2  2  0
  2  3  1  0
  3  4  2  0
  4  5  1  0
  5  6  1  0
  6  7  1  0
  7  8  1  0
  8  9  1  0
  9 10  1  0
 10 11  1  0
 11 12  1  0
 12 13  1  0
 13 14  1  0
 14 15  1  0
 15 16  2  0
 16 17  1  0
 17 18  1  0
 11 19  1  0
  6 20  2  0
 20 21  1  0
 21 22  2  0
 22  1  1  0
 21  4  1  0
 19  7  1  0
 18 14  2  0
  1 23  1  0
  2 24  1  0
  3 25  1  0
  5 26  1  0
  8 27  1  0
  8 28  1  0
  9 29  1  0
  9 30  1  0
 10 31  1  0
 10 32  1  0
 11 33  1  0
 12 34  1  0
 13 35  1  0
 13 36  1  0
 15 37  1  0
 16 38  1  0
 19 39  1  0
 19 40  1  0
 22 41  1  0
M  END
>  <Energy>  (608) 
2877.2247371382068

>  <compound_id>  (608) 
11575

>  <target_id>  (608) 
1

>  <reference_id>  (608) 
59

>  <inspiration_ids>  (608) 
[94, 59]

>  <energy_score>  (608) 
2800.442315389647

>  <distance_score>  (608) 
8.098762125743566

>  <path>  (608) 
/opt/xchem-fragalysis-2/maxwin/BulkDock/SCRATCH/511014/C11575-P59/C11575-P59.minimised.mol

>  <scratch_subdir>  (608) 
/opt/xchem-fragalysis-2/maxwin/BulkDock/SCRATCH/511014/C11575-P59

>  <fragmenstein_runtime>  (608) 
14.841347694396973

>  <fragmenstein_outcome>  (608) 
too moved

>  <fragmenstein_mode>  (608) 
expansion

>  <fragmenstein_error>  (608) 


$$$$
C11576-P94
     RDKit          3D

 48 50  0  0  0  0  0  0  0  0999 V2000
   -6.9756   -2.2396   34.3664 C   0  0  0  0  0  0  0  0  0  0  0  0
   -6.0104   -3.5751   34.0579 C   0  0  0  0  0  0  0  0  0  0  0  0
   -6.7809   -5.4841   34.1874 C   0  0  0  0  0  0  0  0  0  0  0  0
   -6.6465   -7.2063   33.2005 N   0  0  0  0  0  0  0  0  0  0  0  0
   -8.2121   -6.9757   33.6356 C   0  0  0  0  0  0  0  0  0  0  0  0
   -5.4524   -8.6631   33.5833 C   0  0  0  0  0  0  0  0  0  0  0  0
   -4.6677   -8.8228   34.5122 O   0  0  0  0  0  0  0  0  0  0  0  0
   -5.5083  -10.2985   32.4570 C   0  0  0  0  0  0  0  0  0  0  0  0
   -6.5746  -12.0149   32.0066 C   0  0  0  0  0  0  0  0  0  0  0  0
   -7.4778  -13.6550   32.8777 C   0  0  0  0  0  0  0  0  0  0  0  0
   -6.9334  -14.7537   33.9764 N   0  0  0  0  0  0  0  0  0  0  0  0
   -7.3285  -16.0395   33.7568 C   0  0  0  0  0  0  0  0  0  0  0  0
   -7.0446  -17.2559   34.2992 C   0  0  0  0  0  0  0  0  0  0  0  0
   -8.0489  -18.1482   34.1887 C   0  0  0  0  0  0  0  0  0  0  0  0
   -9.3491  -17.6246   34.2000 C   0  0  0  0  0  0  0  0  0  0  0  0
   -9.5866  -16.3562   33.7633 C   0  0  0  0  0  0  0  0  0  0  0  0
   -8.4958  -15.8648   33.0973 C   0  0  0  0  0  0  0  0  0  0  0  0
   -8.3317  -14.7052   32.3116 N   0  0  0  0  0  0  0  0  0  0  0  0
   -5.2185   -3.0385   32.8364 N   0  0  0  0  0  0  0  0  0  0  0  0
   -4.3932   -1.8364   33.2097 C   0  0  0  0  0  0  0  0  0  0  0  0
   -3.2154   -1.5645   32.3178 C   0  0  0  0  0  0  0  0  0  0  0  0
   -2.1135   -2.3856   31.9754 C   0  0  0  0  0  0  0  0  0  0  0  0
   -1.3203   -1.5924   31.1877 C   0  0  0  0  0  0  0  0  0  0  0  0
   -1.8660   -0.3570   31.1005 O   0  0  0  0  0  0  0  0  0  0  0  0
   -3.0328   -0.3201   31.8404 N   0  0  0  0  0  0  0  0  0  0  0  0
   -6.3746   -1.4366   34.8093 H   0  0  0  0  0  0  0  0  0  0  0  0
   -7.4235   -1.8516   33.4436 H   0  0  0  0  0  0  0  0  0  0  0  0
   -7.7808   -2.4206   35.0876 H   0  0  0  0  0  0  0  0  0  0  0  0
   -5.3734   -3.3959   34.9082 H   0  0  0  0  0  0  0  0  0  0  0  0
   -6.7158   -5.0453   33.2674 H   0  0  0  0  0  0  0  0  0  0  0  0
   -7.3649   -5.4710   35.1028 H   0  0  0  0  0  0  0  0  0  0  0  0
   -9.0345   -7.6840   33.4742 H   0  0  0  0  0  0  0  0  0  0  0  0
   -8.5283   -6.6004   32.7052 H   0  0  0  0  0  0  0  0  0  0  0  0
   -8.5225   -6.4335   34.4898 H   0  0  0  0  0  0  0  0  0  0  0  0
   -6.0160  -10.3699   33.3433 H   0  0  0  0  0  0  0  0  0  0  0  0
   -4.4806  -10.3057   32.1580 H   0  0  0  0  0  0  0  0  0  0  0  0
   -7.5525  -11.5903   31.9084 H   0  0  0  0  0  0  0  0  0  0  0  0
   -5.8942  -12.4694   31.2874 H   0  0  0  0  0  0  0  0  0  0  0  0
   -6.2304  -17.5570   34.9051 H   0  0  0  0  0  0  0  0  0  0  0  0
   -7.7565  -19.1856   34.2985 H   0  0  0  0  0  0  0  0  0  0  0  0
  -10.2628  -18.1839   34.3896 H   0  0  0  0  0  0  0  0  0  0  0  0
  -10.5452  -15.8620   33.7561 H   0  0  0  0  0  0  0  0  0  0  0  0
   -9.1448  -14.4150   31.8592 H   0  0  0  0  0  0  0  0  0  0  0  0
   -5.8730   -2.7435   32.1106 H   0  0  0  0  0  0  0  0  0  0  0  0
   -5.0423   -0.9524   33.1851 H   0  0  0  0  0  0  0  0  0  0  0  0
   -4.0024   -1.9165   34.2311 H   0  0  0  0  0  0  0  0  0  0  0  0
   -1.9044   -3.3972   32.2840 H   0  0  0  0  0  0  0  0  0  0  0  0
   -0.3822   -1.7288   30.6698 H   0  0  0  0  0  0  0  0  0  0  0  0
  1  2  1  0
  2  3  1  0
  3  4  1  0
  4  5  1  0
  4  6  1  0
  6  7  2  0
  6  8  1  0
  8  9  1  0
  9 10  1  0
 10 11  2  0
 11 12  1  0
 12 13  2  0
 13 14  1  0
 14 15  2  0
 15 16  1  0
 16 17  2  0
 17 18  1  0
  2 19  1  0
 19 20  1  0
 20 21  1  0
 21 22  1  0
 22 23  2  0
 23 24  1  0
 24 25  1  0
 18 10  1  0
 25 21  2  0
 17 12  1  0
  1 26  1  0
  1 27  1  0
  1 28  1  0
  2 29  1  0
  3 30  1  0
  3 31  1  0
  5 32  1  0
  5 33  1  0
  5 34  1  0
  8 35  1  0
  8 36  1  0
  9 37  1  0
  9 38  1  0
 13 39  1  0
 14 40  1  0
 15 41  1  0
 16 42  1  0
 18 43  1  0
 19 44  1  0
 20 45  1  0
 20 46  1  0
 22 47  1  0
 23 48  1  0
M  END
>  <Energy>  (609) 
903.03267524244097

>  <compound_id>  (609) 
11576

>  <target_id>  (609) 
1

>  <reference_id>  (609) 
94

>  <inspiration_ids>  (609) 
[94, 59]

>  <energy_score>  (609) 
850.6375758133627

>  <distance_score>  (609) 
6.873155047008127

>  <path>  (609) 
/opt/xchem-fragalysis-2/maxwin/BulkDock/SCRATCH/511014/C11576-P94/C11576-P94.minimised.mol

>  <scratch_subdir>  (609) 
/opt/xchem-fragalysis-2/maxwin/BulkDock/SCRATCH/511014/C11576-P94

>  <fragmenstein_runtime>  (609) 
18.802355527877808

>  <fragmenstein_outcome>  (609) 
too moved

>  <fragmenstein_mode>  (609) 
expansion

>  <fragmenstein_error>  (609) 


$$$$
C11576-P59
     RDKit          3D

 48 50  0  0  0  0  0  0  0  0999 V2000
   -7.8688   -2.8879   35.8494 C   0  0  0  0  0  0  0  0  0  0  0  0
   -7.1296   -4.6509   35.3915 C   0  0  0  0  0  0  0  0  0  0  0  0
   -8.4860   -6.2085   34.9551 C   0  0  0  0  0  0  0  0  0  0  0  0
   -8.4967   -7.7575   33.7224 N   0  0  0  0  0  0  0  0  0  0  0  0
   -8.5468   -6.8357   32.8768 C   0  0  0  0  0  0  0  0  0  0  0  0
   -9.8365   -9.1091   33.3327 C   0  0  0  0  0  0  0  0  0  0  0  0
  -11.0152   -9.2178   33.7211 O   0  0  0  0  0  0  0  0  0  0  0  0
   -9.2999  -10.7958   32.2194 C   0  0  0  0  0  0  0  0  0  0  0  0
   -9.0557  -12.6664   33.0583 C   0  0  0  0  0  0  0  0  0  0  0  0
   -9.8710  -14.4369   33.1848 C   0  0  0  0  0  0  0  0  0  0  0  0
   -9.4835  -15.7064   33.0851 N   0  0  0  0  0  0  0  0  0  0  0  0
  -10.0528  -16.5071   34.1599 C   0  0  0  0  0  0  0  0  0  0  0  0
   -9.8018  -17.7862   34.6993 C   0  0  0  0  0  0  0  0  0  0  0  0
  -10.6880  -18.3146   35.6469 C   0  0  0  0  0  0  0  0  0  0  0  0
  -11.9213  -17.7052   35.8748 C   0  0  0  0  0  0  0  0  0  0  0  0
  -12.2696  -16.5208   35.2168 C   0  0  0  0  0  0  0  0  0  0  0  0
  -11.2526  -15.9028   34.4660 C   0  0  0  0  0  0  0  0  0  0  0  0
  -11.2168  -14.9298   33.4250 N   0  0  0  0  0  0  0  0  0  0  0  0
   -5.6737   -3.3821   35.0775 N   0  0  0  0  0  0  0  0  0  0  0  0
   -5.6528   -1.9388   34.6561 C   0  0  0  0  0  0  0  0  0  0  0  0
   -4.3370   -1.5371   34.0042 C   0  0  0  0  0  0  0  0  0  0  0  0
   -3.0105   -1.6726   34.4848 C   0  0  0  0  0  0  0  0  0  0  0  0
   -2.2242   -1.1332   33.5003 C   0  0  0  0  0  0  0  0  0  0  0  0
   -3.0105   -0.6613   32.5063 O   0  0  0  0  0  0  0  0  0  0  0  0
   -4.3360   -0.8863   32.8280 N   0  0  0  0  0  0  0  0  0  0  0  0
   -8.9277   -2.9129   36.1855 H   0  0  0  0  0  0  0  0  0  0  0  0
   -7.3546   -2.3431   36.6571 H   0  0  0  0  0  0  0  0  0  0  0  0
   -7.9611   -2.2311   34.9747 H   0  0  0  0  0  0  0  0  0  0  0  0
   -6.5190   -5.1685   34.6779 H   0  0  0  0  0  0  0  0  0  0  0  0
   -9.5065   -5.8943   35.2502 H   0  0  0  0  0  0  0  0  0  0  0  0
   -7.9506   -6.7467   35.7348 H   0  0  0  0  0  0  0  0  0  0  0  0
   -9.6034   -6.9486   32.6878 H   0  0  0  0  0  0  0  0  0  0  0  0
   -7.7546   -6.2568   33.2729 H   0  0  0  0  0  0  0  0  0  0  0  0
   -7.8144   -6.9506   32.1294 H   0  0  0  0  0  0  0  0  0  0  0  0
   -9.8532  -10.7054   31.3100 H   0  0  0  0  0  0  0  0  0  0  0  0
   -8.3564  -10.8450   31.7609 H   0  0  0  0  0  0  0  0  0  0  0  0
   -7.9915  -12.8977   32.8766 H   0  0  0  0  0  0  0  0  0  0  0  0
   -9.9190  -12.8851   32.4770 H   0  0  0  0  0  0  0  0  0  0  0  0
   -8.9967  -18.4064   34.3338 H   0  0  0  0  0  0  0  0  0  0  0  0
  -10.4586  -19.2653   36.1194 H   0  0  0  0  0  0  0  0  0  0  0  0
  -12.6413  -18.1875   36.5304 H   0  0  0  0  0  0  0  0  0  0  0  0
  -13.2689  -16.1134   35.2784 H   0  0  0  0  0  0  0  0  0  0  0  0
  -11.7074  -15.2866   32.6255 H   0  0  0  0  0  0  0  0  0  0  0  0
   -4.7503   -3.7744   35.0125 H   0  0  0  0  0  0  0  0  0  0  0  0
   -6.4312   -1.6869   33.9276 H   0  0  0  0  0  0  0  0  0  0  0  0
   -5.7722   -1.3003   35.5382 H   0  0  0  0  0  0  0  0  0  0  0  0
   -2.6808   -2.1284   35.4061 H   0  0  0  0  0  0  0  0  0  0  0  0
   -1.1609   -1.0071   33.3621 H   0  0  0  0  0  0  0  0  0  0  0  0
  1  2  1  0
  2  3  1  0
  3  4  1  0
  4  5  1  0
  4  6  1  0
  6  7  2  0
  6  8  1  0
  8  9  1  0
  9 10  1  0
 10 11  2  0
 11 12  1  0
 12 13  2  0
 13 14  1  0
 14 15  2  0
 15 16  1  0
 16 17  2  0
 17 18  1  0
  2 19  1  0
 19 20  1  0
 20 21  1  0
 21 22  1  0
 22 23  2  0
 23 24  1  0
 24 25  1  0
 18 10  1  0
 25 21  2  0
 17 12  1  0
  1 26  1  0
  1 27  1  0
  1 28  1  0
  2 29  1  0
  3 30  1  0
  3 31  1  0
  5 32  1  0
  5 33  1  0
  5 34  1  0
  8 35  1  0
  8 36  1  0
  9 37  1  0
  9 38  1  0
 13 39  1  0
 14 40  1  0
 15 41  1  0
 16 42  1  0
 18 43  1  0
 19 44  1  0
 20 45  1  0
 20 46  1  0
 22 47  1  0
 23 48  1  0
M  END
>  <Energy>  (610) 
966.30965370648846

>  <compound_id>  (610) 
11576

>  <target_id>  (610) 
1

>  <reference_id>  (610) 
59

>  <inspiration_ids>  (610) 
[94, 59]

>  <energy_score>  (610) 
913.9145542774121

>  <distance_score>  (610) 
7.082500212008614

>  <path>  (610) 
/opt/xchem-fragalysis-2/maxwin/BulkDock/SCRATCH/511014/C11576-P59/C11576-P59.minimised.mol

>  <scratch_subdir>  (610) 
/opt/xchem-fragalysis-2/maxwin/BulkDock/SCRATCH/511014/C11576-P59

>  <fragmenstein_runtime>  (610) 
27.288328886032104

>  <fragmenstein_outcome>  (610) 
too moved

>  <fragmenstein_mode>  (610) 
expansion

>  <fragmenstein_error>  (610) 


$$$$
C11583-P94
     RDKit          3D

 43 45  0  0  0  0  0  0  0  0999 V2000
  -11.4369  -19.0825   34.5122 C   0  0  0  0  0  0  0  0  0  0  0  0
  -10.8112  -17.8705   35.0884 N   0  0  0  0  0  0  0  0  0  0  0  0
  -11.8021  -17.0391   35.5670 C   0  0  0  0  0  0  0  0  0  0  0  0
  -11.8744  -16.0154   34.7593 N   0  0  0  0  0  0  0  0  0  0  0  0
  -10.6172  -15.9911   34.1475 C   0  0  0  0  0  0  0  0  0  0  0  0
  -10.1568  -15.0511   33.1382 C   0  0  0  0  0  0  0  0  0  0  0  0
   -8.7514  -14.3187   32.5105 C   0  0  0  0  0  0  0  0  0  0  0  0
   -8.8897  -12.2799   32.9836 C   0  0  0  0  0  0  0  0  0  0  0  0
   -8.6002  -12.1244   34.0458 O   0  0  0  0  0  0  0  0  0  0  0  0
   -9.5674  -10.6878   32.2757 N   0  0  0  0  0  0  0  0  0  0  0  0
  -10.0201   -8.9447   33.1278 C   0  0  0  0  0  0  0  0  0  0  0  0
   -9.4658   -7.3718   33.9101 C   0  0  0  0  0  0  0  0  0  0  0  0
   -8.7336   -7.0334   32.7803 C   0  0  0  0  0  0  0  0  0  0  0  0
   -7.3666   -6.9190   32.7425 O   0  0  0  0  0  0  0  0  0  0  0  0
   -8.6100   -6.3779   34.9771 N   0  0  0  0  0  0  0  0  0  0  0  0
   -7.1821   -5.3193   34.8356 C   0  0  0  0  0  0  0  0  0  0  0  0
   -6.2401   -3.5745   34.4271 C   0  0  0  0  0  0  0  0  0  0  0  0
   -5.5940   -3.0818   33.1897 C   0  0  0  0  0  0  0  0  0  0  0  0
   -5.3018   -1.7563   33.3524 C   0  0  0  0  0  0  0  0  0  0  0  0
   -5.9850   -1.3324   34.4216 O   0  0  0  0  0  0  0  0  0  0  0  0
   -6.7764   -2.3599   34.8661 N   0  0  0  0  0  0  0  0  0  0  0  0
   -8.0034  -15.6530   33.1072 C   0  0  0  0  0  0  0  0  0  0  0  0
   -8.4811  -16.9309   34.0082 C   0  0  0  0  0  0  0  0  0  0  0  0
   -9.8111  -17.0309   34.5170 C   0  0  0  0  0  0  0  0  0  0  0  0
  -12.4157  -18.8155   34.1042 H   0  0  0  0  0  0  0  0  0  0  0  0
  -10.8137  -19.4952   33.7199 H   0  0  0  0  0  0  0  0  0  0  0  0
  -11.6506  -19.7766   35.3271 H   0  0  0  0  0  0  0  0  0  0  0  0
  -12.5414  -17.3487   36.2929 H   0  0  0  0  0  0  0  0  0  0  0  0
  -11.1435  -14.6122   33.1690 H   0  0  0  0  0  0  0  0  0  0  0  0
   -9.7264  -10.8318   31.3206 H   0  0  0  0  0  0  0  0  0  0  0  0
  -10.5551   -9.2803   34.0375 H   0  0  0  0  0  0  0  0  0  0  0  0
  -10.9473   -8.5869   32.6167 H   0  0  0  0  0  0  0  0  0  0  0  0
  -10.4739   -6.9639   34.0682 H   0  0  0  0  0  0  0  0  0  0  0  0
   -8.9517   -6.1296   33.0177 H   0  0  0  0  0  0  0  0  0  0  0  0
   -9.3275   -7.0632   31.9008 H   0  0  0  0  0  0  0  0  0  0  0  0
   -7.0891   -7.1491   33.6460 H   0  0  0  0  0  0  0  0  0  0  0  0
   -9.2491   -5.9766   35.6526 H   0  0  0  0  0  0  0  0  0  0  0  0
   -7.8405   -4.6363   35.3730 H   0  0  0  0  0  0  0  0  0  0  0  0
   -6.9883   -5.7677   35.7316 H   0  0  0  0  0  0  0  0  0  0  0  0
   -5.3686   -3.5764   32.2773 H   0  0  0  0  0  0  0  0  0  0  0  0
   -4.7686   -1.0069   32.7908 H   0  0  0  0  0  0  0  0  0  0  0  0
   -6.9317  -15.8084   33.0817 H   0  0  0  0  0  0  0  0  0  0  0  0
   -7.7368  -17.7024   34.1999 H   0  0  0  0  0  0  0  0  0  0  0  0
  1  2  1  0
  2  3  1  0
  3  4  2  0
  4  5  1  0
  5  6  2  0
  6  7  1  0
  7  8  1  0
  8  9  2  0
  8 10  1  0
 10 11  1  0
 11 12  1  0
 12 13  1  0
 13 14  1  0
 12 15  1  0
 15 16  1  0
 16 17  1  0
 17 18  1  0
 18 19  2  0
 19 20  1  0
 20 21  1  0
  7 22  2  0
 22 23  1  0
 23 24  2  0
 24  2  1  0
 24  5  1  0
 21 17  2  0
  1 25  1  0
  1 26  1  0
  1 27  1  0
  3 28  1  0
  6 29  1  0
 10 30  1  0
 11 31  1  0
 11 32  1  0
 12 33  1  0
 13 34  1  0
 13 35  1  0
 14 36  1  0
 15 37  1  0
 16 38  1  0
 16 39  1  0
 18 40  1  0
 19 41  1  0
 22 42  1  0
 23 43  1  0
M  END
>  <Energy>  (611) 
934.43216115444352

>  <compound_id>  (611) 
11583

>  <target_id>  (611) 
1

>  <reference_id>  (611) 
94

>  <inspiration_ids>  (611) 
[94, 59]

>  <energy_score>  (611) 
831.6264984835944

>  <distance_score>  (611) 
7.649029968450633

>  <path>  (611) 
/opt/xchem-fragalysis-2/maxwin/BulkDock/SCRATCH/511014/C11583-P94/C11583-P94.minimised.mol

>  <scratch_subdir>  (611) 
/opt/xchem-fragalysis-2/maxwin/BulkDock/SCRATCH/511014/C11583-P94

>  <fragmenstein_runtime>  (611) 
16.960946083068848

>  <fragmenstein_outcome>  (611) 
too moved

>  <fragmenstein_mode>  (611) 
expansion

>  <fragmenstein_error>  (611) 


$$$$
C11583-P59
     RDKit          3D

 43 45  0  0  0  0  0  0  0  0999 V2000
  -11.7803  -22.2320   32.8633 C   0  0  0  0  0  0  0  0  0  0  0  0
  -10.7871  -21.6966   31.8103 N   0  0  0  0  0  0  0  0  0  0  0  0
   -9.6366  -21.6023   32.4736 C   0  0  0  0  0  0  0  0  0  0  0  0
   -9.6427  -20.4321   33.6362 N   0  0  0  0  0  0  0  0  0  0  0  0
   -9.9100  -19.1983   32.8583 C   0  0  0  0  0  0  0  0  0  0  0  0
   -8.0391  -18.4447   32.7031 C   0  0  0  0  0  0  0  0  0  0  0  0
   -7.1724  -17.7676   31.1485 C   0  0  0  0  0  0  0  0  0  0  0  0
   -6.1879  -15.6743   31.4340 C   0  0  0  0  0  0  0  0  0  0  0  0
   -4.9722  -15.6279   31.4248 O   0  0  0  0  0  0  0  0  0  0  0  0
   -7.1155  -13.8533   31.8285 N   0  0  0  0  0  0  0  0  0  0  0  0
   -6.4033  -11.8348   32.3968 C   0  0  0  0  0  0  0  0  0  0  0  0
   -5.8991   -9.7350   33.2178 C   0  0  0  0  0  0  0  0  0  0  0  0
   -7.0379   -7.7484   33.3672 C   0  0  0  0  0  0  0  0  0  0  0  0
   -6.9434   -6.4896   34.3705 O   0  0  0  0  0  0  0  0  0  0  0  0
   -5.1291   -8.0496   32.2584 N   0  0  0  0  0  0  0  0  0  0  0  0
   -5.9828   -6.1227   31.8713 C   0  0  0  0  0  0  0  0  0  0  0  0
   -5.1097   -4.2257   32.3806 C   0  0  0  0  0  0  0  0  0  0  0  0
   -4.7900   -3.1548   31.4011 C   0  0  0  0  0  0  0  0  0  0  0  0
   -3.9046   -2.2396   31.8839 C   0  0  0  0  0  0  0  0  0  0  0  0
   -3.9980   -2.3727   33.1973 O   0  0  0  0  0  0  0  0  0  0  0  0
   -4.8833   -3.3676   33.4471 N   0  0  0  0  0  0  0  0  0  0  0  0
   -8.1031  -18.9720   29.6575 C   0  0  0  0  0  0  0  0  0  0  0  0
  -10.0529  -20.0863   29.5667 C   0  0  0  0  0  0  0  0  0  0  0  0
  -10.7338  -20.1674   31.3609 C   0  0  0  0  0  0  0  0  0  0  0  0
  -12.7281  -21.3181   32.2432 H   0  0  0  0  0  0  0  0  0  0  0  0
  -12.2377  -22.0557   34.6508 H   0  0  0  0  0  0  0  0  0  0  0  0
  -12.1428  -21.9038   34.6494 H   0  0  0  0  0  0  0  0  0  0  0  0
   -9.3786  -22.6861   32.6844 H   0  0  0  0  0  0  0  0  0  0  0  0
   -7.3881  -19.1142   33.2967 H   0  0  0  0  0  0  0  0  0  0  0  0
   -8.0855  -14.0099   31.8996 H   0  0  0  0  0  0  0  0  0  0  0  0
   -5.9697  -12.1646   33.2307 H   0  0  0  0  0  0  0  0  0  0  0  0
   -7.4548  -11.7254   32.7072 H   0  0  0  0  0  0  0  0  0  0  0  0
   -5.3990   -9.8026   34.2083 H   0  0  0  0  0  0  0  0  0  0  0  0
   -7.4188   -7.3525   32.4496 H   0  0  0  0  0  0  0  0  0  0  0  0
   -8.1997   -7.7092   33.4972 H   0  0  0  0  0  0  0  0  0  0  0  0
   -7.7906   -6.4879   34.8480 H   0  0  0  0  0  0  0  0  0  0  0  0
   -5.1703   -8.0379   33.3172 H   0  0  0  0  0  0  0  0  0  0  0  0
   -6.4142   -6.0455   30.8603 H   0  0  0  0  0  0  0  0  0  0  0  0
   -6.8177   -6.0703   32.5139 H   0  0  0  0  0  0  0  0  0  0  0  0
   -5.2633   -3.1947   30.4505 H   0  0  0  0  0  0  0  0  0  0  0  0
   -3.3434   -1.3996   31.5056 H   0  0  0  0  0  0  0  0  0  0  0  0
   -7.6116  -18.9092   28.6787 H   0  0  0  0  0  0  0  0  0  0  0  0
  -10.5794  -20.8422   28.9056 H   0  0  0  0  0  0  0  0  0  0  0  0
  1  2  1  0
  2  3  1  0
  3  4  2  0
  4  5  1  0
  5  6  2  0
  6  7  1  0
  7  8  1  0
  8  9  2  0
  8 10  1  0
 10 11  1  0
 11 12  1  0
 12 13  1  0
 13 14  1  0
 12 15  1  0
 15 16  1  0
 16 17  1  0
 17 18  1  0
 18 19  2  0
 19 20  1  0
 20 21  1  0
  7 22  2  0
 22 23  1  0
 23 24  2  0
 24  2  1  0
 24  5  1  0
 21 17  2  0
  1 25  1  0
  1 26  1  0
  1 27  1  0
  3 28  1  0
  6 29  1  0
 10 30  1  0
 11 31  1  0
 11 32  1  0
 12 33  1  0
 13 34  1  0
 13 35  1  0
 14 36  1  0
 15 37  1  0
 16 38  1  0
 16 39  1  0
 18 40  1  0
 19 41  1  0
 22 42  1  0
 23 43  1  0
M  END
>  <Energy>  (612) 
3452.5475056446644

>  <compound_id>  (612) 
11583

>  <target_id>  (612) 
1

>  <reference_id>  (612) 
59

>  <inspiration_ids>  (612) 
[94, 59]

>  <energy_score>  (612) 
3349.7418429738054

>  <distance_score>  (612) 
5.619883252652038

>  <path>  (612) 
/opt/xchem-fragalysis-2/maxwin/BulkDock/SCRATCH/511014/C11583-P59/C11583-P59.minimised.mol

>  <scratch_subdir>  (612) 
/opt/xchem-fragalysis-2/maxwin/BulkDock/SCRATCH/511014/C11583-P59

>  <fragmenstein_runtime>  (612) 
29.421806573867798

>  <fragmenstein_outcome>  (612) 
too moved

>  <fragmenstein_mode>  (612) 
expansion

>  <fragmenstein_error>  (612) 


$$$$
C11575-P94
     RDKit          3D

 41 44  0  0  0  0  0  0  0  0999 V2000
   -7.1219  -16.4765   31.7843 C   0  0  0  0  0  0  0  0  0  0  0  0
   -6.6754  -15.9993   30.5603 C   0  0  0  0  0  0  0  0  0  0  0  0
   -6.6712  -14.6281   30.3340 C   0  0  0  0  0  0  0  0  0  0  0  0
   -7.0721  -13.7959   31.4230 C   0  0  0  0  0  0  0  0  0  0  0  0
   -6.9783  -12.0952   31.8903 N   0  0  0  0  0  0  0  0  0  0  0  0
   -8.4720  -11.4220   32.5902 C   0  0  0  0  0  0  0  0  0  0  0  0
   -9.4314   -9.8714   32.6359 N   0  0  0  0  0  0  0  0  0  0  0  0
  -10.4810   -9.1792   33.6917 C   0  0  0  0  0  0  0  0  0  0  0  0
  -10.4829   -7.0685   33.7369 C   0  0  0  0  0  0  0  0  0  0  0  0
   -8.6686   -6.3659   34.0459 C   0  0  0  0  0  0  0  0  0  0  0  0
   -7.7193   -6.7086   32.5665 C   0  0  0  0  0  0  0  0  0  0  0  0
   -6.5539   -6.0245   31.2521 N   0  0  0  0  0  0  0  0  0  0  0  0
   -6.0729   -4.2473   30.5231 C   0  0  0  0  0  0  0  0  0  0  0  0
   -5.3879   -3.0966   31.5019 C   0  0  0  0  0  0  0  0  0  0  0  0
   -4.0617   -2.5240   31.5473 C   0  0  0  0  0  0  0  0  0  0  0  0
   -4.0769   -1.6345   32.5872 C   0  0  0  0  0  0  0  0  0  0  0  0
   -5.3262   -1.5745   33.0867 O   0  0  0  0  0  0  0  0  0  0  0  0
   -6.1439   -2.4438   32.4030 N   0  0  0  0  0  0  0  0  0  0  0  0
   -9.0374   -7.8779   32.7985 C   0  0  0  0  0  0  0  0  0  0  0  0
   -8.7357  -12.7324   33.1371 N   0  0  0  0  0  0  0  0  0  0  0  0
   -7.9478  -14.2708   32.4647 C   0  0  0  0  0  0  0  0  0  0  0  0
   -7.9551  -15.6923   32.6313 C   0  0  0  0  0  0  0  0  0  0  0  0
   -6.9168  -17.5135   32.0422 H   0  0  0  0  0  0  0  0  0  0  0  0
   -6.2302  -16.6772   29.8377 H   0  0  0  0  0  0  0  0  0  0  0  0
   -6.3147  -14.1962   29.4212 H   0  0  0  0  0  0  0  0  0  0  0  0
   -6.2000  -11.5453   31.5583 H   0  0  0  0  0  0  0  0  0  0  0  0
  -11.3425   -9.6707   33.3204 H   0  0  0  0  0  0  0  0  0  0  0  0
  -10.5591   -9.6176   34.7138 H   0  0  0  0  0  0  0  0  0  0  0  0
  -11.1419   -6.5884   34.4946 H   0  0  0  0  0  0  0  0  0  0  0  0
  -10.7617   -6.8881   32.6982 H   0  0  0  0  0  0  0  0  0  0  0  0
   -8.0658   -6.7985   34.8070 H   0  0  0  0  0  0  0  0  0  0  0  0
   -8.5699   -5.5942   34.8343 H   0  0  0  0  0  0  0  0  0  0  0  0
   -6.8348   -7.1027   33.0451 H   0  0  0  0  0  0  0  0  0  0  0  0
   -6.4971   -6.5000   30.3885 H   0  0  0  0  0  0  0  0  0  0  0  0
   -5.7578   -4.3655   29.4912 H   0  0  0  0  0  0  0  0  0  0  0  0
   -6.9964   -3.6706   30.2644 H   0  0  0  0  0  0  0  0  0  0  0  0
   -3.1900   -2.7270   30.9431 H   0  0  0  0  0  0  0  0  0  0  0  0
   -3.3458   -0.9909   33.0525 H   0  0  0  0  0  0  0  0  0  0  0  0
   -9.1537   -8.0269   33.8123 H   0  0  0  0  0  0  0  0  0  0  0  0
   -8.0782   -7.8431   33.1143 H   0  0  0  0  0  0  0  0  0  0  0  0
   -8.4752  -16.1709   33.4562 H   0  0  0  0  0  0  0  0  0  0  0  0
  1  2  2  0
  2  3  1  0
  3  4  2  0
  4  5  1  0
  5  6  1  0
  6  7  1  0
  7  8  1  0
  8  9  1  0
  9 10  1  0
 10 11  1  0
 11 12  1  0
 12 13  1  0
 13 14  1  0
 14 15  1  0
 15 16  2  0
 16 17  1  0
 17 18  1  0
 11 19  1  0
  6 20  2  0
 20 21  1  0
 21 22  2  0
 22  1  1  0
 21  4  1  0
 19  7  1  0
 18 14  2  0
  1 23  1  0
  2 24  1  0
  3 25  1  0
  5 26  1  0
  8 27  1  0
  8 28  1  0
  9 29  1  0
  9 30  1  0
 10 31  1  0
 10 32  1  0
 11 33  1  0
 12 34  1  0
 13 35  1  0
 13 36  1  0
 15 37  1  0
 16 38  1  0
 19 39  1  0
 19 40  1  0
 22 41  1  0
M  END
>  <Energy>  (613) 
1171.50308657858

>  <compound_id>  (613) 
11575

>  <target_id>  (613) 
1

>  <reference_id>  (613) 
94

>  <inspiration_ids>  (613) 
[94, 59]

>  <energy_score>  (613) 
1094.7206648300328

>  <distance_score>  (613) 
8.5270628284461

>  <path>  (613) 
/opt/xchem-fragalysis-2/maxwin/BulkDock/SCRATCH/511014/C11575-P94/C11575-P94.minimised.mol

>  <scratch_subdir>  (613) 
/opt/xchem-fragalysis-2/maxwin/BulkDock/SCRATCH/511014/C11575-P94

>  <fragmenstein_runtime>  (613) 
18.973142385482788

>  <fragmenstein_outcome>  (613) 
too moved

>  <fragmenstein_mode>  (613) 
expansion

>  <fragmenstein_error>  (613) 


$$$$
C11575-P59
     RDKit          3D

 41 44  0  0  0  0  0  0  0  0999 V2000
  -12.5197  -19.9132   29.1996 C   0  0  0  0  0  0  0  0  0  0  0  0
  -11.7651  -20.8994   29.9501 C   0  0  0  0  0  0  0  0  0  0  0  0
  -10.9815  -20.5217   31.1352 C   0  0  0  0  0  0  0  0  0  0  0  0
  -10.5036  -18.9515   31.8962 C   0  0  0  0  0  0  0  0  0  0  0  0
  -10.0521  -17.2744   33.1252 N   0  0  0  0  0  0  0  0  0  0  0  0
   -9.9914  -15.3034   32.4853 C   0  0  0  0  0  0  0  0  0  0  0  0
   -9.5884  -13.3229   32.9083 N   0  0  0  0  0  0  0  0  0  0  0  0
   -9.7050  -11.3846   32.1091 C   0  0  0  0  0  0  0  0  0  0  0  0
  -10.7905   -9.7686   32.8942 C   0  0  0  0  0  0  0  0  0  0  0  0
  -10.2833   -8.4426   33.2233 C   0  0  0  0  0  0  0  0  0  0  0  0
   -9.5715   -9.5088   33.9763 C   0  0  0  0  0  0  0  0  0  0  0  0
   -8.7991   -7.5508   34.0058 N   0  0  0  0  0  0  0  0  0  0  0  0
   -7.6804   -6.3204   35.0584 C   0  0  0  0  0  0  0  0  0  0  0  0
   -7.0410   -4.4242   35.3484 C   0  0  0  0  0  0  0  0  0  0  0  0
   -5.7095   -3.1301   35.0688 C   0  0  0  0  0  0  0  0  0  0  0  0
   -6.2258   -1.8858   35.3274 C   0  0  0  0  0  0  0  0  0  0  0  0
   -7.4484   -1.9959   35.8339 O   0  0  0  0  0  0  0  0  0  0  0  0
   -7.8941   -3.2540   36.0993 N   0  0  0  0  0  0  0  0  0  0  0  0
   -8.6885  -11.6690   33.9055 C   0  0  0  0  0  0  0  0  0  0  0  0
  -10.7704  -15.8789   30.9590 N   0  0  0  0  0  0  0  0  0  0  0  0
  -10.9343  -17.7398   30.1047 C   0  0  0  0  0  0  0  0  0  0  0  0
  -12.1058  -18.1577   29.1079 C   0  0  0  0  0  0  0  0  0  0  0  0
  -12.9856  -20.4723   28.4134 H   0  0  0  0  0  0  0  0  0  0  0  0
  -11.8297  -21.9356   29.6340 H   0  0  0  0  0  0  0  0  0  0  0  0
  -10.5385  -21.3691   31.6611 H   0  0  0  0  0  0  0  0  0  0  0  0
  -10.6845  -17.2981   33.9002 H   0  0  0  0  0  0  0  0  0  0  0  0
   -8.6287  -11.1510   32.0642 H   0  0  0  0  0  0  0  0  0  0  0  0
   -9.6753  -10.8369   31.1393 H   0  0  0  0  0  0  0  0  0  0  0  0
  -11.6287   -9.9964   33.6657 H   0  0  0  0  0  0  0  0  0  0  0  0
  -11.0472   -9.1822   32.0145 H   0  0  0  0  0  0  0  0  0  0  0  0
  -10.7392   -7.5909   33.8181 H   0  0  0  0  0  0  0  0  0  0  0  0
  -10.2262   -7.5985   32.4742 H   0  0  0  0  0  0  0  0  0  0  0  0
   -9.2994   -9.3706   32.9289 H   0  0  0  0  0  0  0  0  0  0  0  0
   -8.3770   -7.4098   33.0893 H   0  0  0  0  0  0  0  0  0  0  0  0
   -7.1621   -6.2509   34.1166 H   0  0  0  0  0  0  0  0  0  0  0  0
   -8.6374   -5.9430   35.3910 H   0  0  0  0  0  0  0  0  0  0  0  0
   -4.8287   -3.2101   34.4786 H   0  0  0  0  0  0  0  0  0  0  0  0
   -5.8688   -0.8802   35.1632 H   0  0  0  0  0  0  0  0  0  0  0  0
   -8.5266  -11.7415   34.9770 H   0  0  0  0  0  0  0  0  0  0  0  0
   -7.6915  -11.7540   33.4143 H   0  0  0  0  0  0  0  0  0  0  0  0
  -12.4692  -17.3443   28.5032 H   0  0  0  0  0  0  0  0  0  0  0  0
  1  2  2  0
  2  3  1  0
  3  4  2  0
  4  5  1  0
  5  6  1  0
  6  7  1  0
  7  8  1  0
  8  9  1  0
  9 10  1  0
 10 11  1  0
 11 12  1  0
 12 13  1  0
 13 14  1  0
 14 15  1  0
 15 16  2  0
 16 17  1  0
 17 18  1  0
 11 19  1  0
  6 20  2  0
 20 21  1  0
 21 22  2  0
 22  1  1  0
 21  4  1  0
 19  7  1  0
 18 14  2  0
  1 23  1  0
  2 24  1  0
  3 25  1  0
  5 26  1  0
  8 27  1  0
  8 28  1  0
  9 29  1  0
  9 30  1  0
 10 31  1  0
 10 32  1  0
 11 33  1  0
 12 34  1  0
 13 35  1  0
 13 36  1  0
 15 37  1  0
 16 38  1  0
 19 39  1  0
 19 40  1  0
 22 41  1  0
M  END
>  <Energy>  (614) 
2877.2247371382068

>  <compound_id>  (614) 
11575

>  <target_id>  (614) 
1

>  <reference_id>  (614) 
59

>  <inspiration_ids>  (614) 
[94, 59]

>  <energy_score>  (614) 
2800.442315389647

>  <distance_score>  (614) 
8.098762125743566

>  <path>  (614) 
/opt/xchem-fragalysis-2/maxwin/BulkDock/SCRATCH/511014/C11575-P59/C11575-P59.minimised.mol

>  <scratch_subdir>  (614) 
/opt/xchem-fragalysis-2/maxwin/BulkDock/SCRATCH/511014/C11575-P59

>  <fragmenstein_runtime>  (614) 
15.225159168243408

>  <fragmenstein_outcome>  (614) 
too moved

>  <fragmenstein_mode>  (614) 
expansion

>  <fragmenstein_error>  (614) 


$$$$
C11599-P94
     RDKit          3D

 48 50  0  0  0  0  0  0  0  0999 V2000
  -13.6915  -16.1178   34.6354 C   0  0  0  0  0  0  0  0  0  0  0  0
  -12.3333  -15.7922   34.1567 C   0  0  0  0  0  0  0  0  0  0  0  0
  -11.9471  -14.7605   33.4323 N   0  0  0  0  0  0  0  0  0  0  0  0
  -10.4406  -14.6533   33.4026 C   0  0  0  0  0  0  0  0  0  0  0  0
   -9.4032  -13.1756   32.8899 C   0  0  0  0  0  0  0  0  0  0  0  0
   -9.3251  -11.0974   32.3738 C   0  0  0  0  0  0  0  0  0  0  0  0
   -8.5230  -10.8264   31.5537 O   0  0  0  0  0  0  0  0  0  0  0  0
  -10.3023   -9.6033   33.2150 N   0  0  0  0  0  0  0  0  0  0  0  0
  -10.1406   -7.8886   33.0833 C   0  0  0  0  0  0  0  0  0  0  0  0
  -10.9886   -7.4618   34.3892 C   0  0  0  0  0  0  0  0  0  0  0  0
   -8.6703   -6.9736   33.4799 C   0  0  0  0  0  0  0  0  0  0  0  0
   -7.7124   -6.6143   34.6879 C   0  0  0  0  0  0  0  0  0  0  0  0
   -8.2516   -7.4509   35.8848 C   0  0  0  0  0  0  0  0  0  0  0  0
   -6.9944   -5.0231   35.0576 N   0  0  0  0  0  0  0  0  0  0  0  0
   -6.2226   -3.3888   34.3720 C   0  0  0  0  0  0  0  0  0  0  0  0
   -5.0757   -2.3897   34.6407 C   0  0  0  0  0  0  0  0  0  0  0  0
   -4.2747   -1.8005   33.5978 C   0  0  0  0  0  0  0  0  0  0  0  0
   -3.4841   -0.8849   34.2321 C   0  0  0  0  0  0  0  0  0  0  0  0
   -3.8258   -0.8419   35.5400 O   0  0  0  0  0  0  0  0  0  0  0  0
   -4.8644   -1.7250   35.7851 N   0  0  0  0  0  0  0  0  0  0  0  0
   -8.2714  -14.4829   32.4765 C   0  0  0  0  0  0  0  0  0  0  0  0
   -7.9669  -15.8883   33.1409 C   0  0  0  0  0  0  0  0  0  0  0  0
   -8.8363  -16.5654   33.9582 C   0  0  0  0  0  0  0  0  0  0  0  0
  -10.0831  -15.9611   33.9614 C   0  0  0  0  0  0  0  0  0  0  0  0
  -11.2313  -16.5046   34.5537 N   0  0  0  0  0  0  0  0  0  0  0  0
  -14.4565  -15.6114   34.0457 H   0  0  0  0  0  0  0  0  0  0  0  0
  -13.8733  -17.1956   34.6029 H   0  0  0  0  0  0  0  0  0  0  0  0
  -13.8083  -15.7908   35.6737 H   0  0  0  0  0  0  0  0  0  0  0  0
  -10.8891   -9.9703   33.9491 H   0  0  0  0  0  0  0  0  0  0  0  0
  -10.7621   -7.5049   32.2751 H   0  0  0  0  0  0  0  0  0  0  0  0
  -11.9198   -7.0045   34.0696 H   0  0  0  0  0  0  0  0  0  0  0  0
  -11.0955   -8.2811   35.0998 H   0  0  0  0  0  0  0  0  0  0  0  0
  -10.5972   -6.6707   35.0335 H   0  0  0  0  0  0  0  0  0  0  0  0
   -9.3078   -6.2904   33.8765 H   0  0  0  0  0  0  0  0  0  0  0  0
   -8.1077   -6.8330   32.5819 H   0  0  0  0  0  0  0  0  0  0  0  0
   -6.8181   -7.1882   34.4221 H   0  0  0  0  0  0  0  0  0  0  0  0
   -7.4268   -7.8864   36.4575 H   0  0  0  0  0  0  0  0  0  0  0  0
   -8.8194   -8.3372   35.6014 H   0  0  0  0  0  0  0  0  0  0  0  0
   -8.9681   -6.9073   36.4972 H   0  0  0  0  0  0  0  0  0  0  0  0
   -6.3366   -5.3429   34.3958 H   0  0  0  0  0  0  0  0  0  0  0  0
   -6.0781   -3.6086   33.3054 H   0  0  0  0  0  0  0  0  0  0  0  0
   -7.0364   -2.6365   34.5441 H   0  0  0  0  0  0  0  0  0  0  0  0
   -4.2694   -2.0439   32.5474 H   0  0  0  0  0  0  0  0  0  0  0  0
   -2.6966   -0.2117   33.9292 H   0  0  0  0  0  0  0  0  0  0  0  0
   -7.4817  -14.2408   31.7552 H   0  0  0  0  0  0  0  0  0  0  0  0
   -6.9720  -16.3343   33.0495 H   0  0  0  0  0  0  0  0  0  0  0  0
   -8.5985  -17.5059   34.4221 H   0  0  0  0  0  0  0  0  0  0  0  0
  -11.2617  -17.4295   34.9474 H   0  0  0  0  0  0  0  0  0  0  0  0
  1  2  1  0
  2  3  2  0
  3  4  1  0
  4  5  2  0
  5  6  1  0
  6  7  2  0
  6  8  1  0
  8  9  1  0
  9 10  1  0
  9 11  1  0
 11 12  1  0
 12 13  1  0
 12 14  1  0
 14 15  1  0
 15 16  1  0
 16 17  1  0
 17 18  2  0
 18 19  1  0
 19 20  1  0
  5 21  1  0
 21 22  2  0
 22 23  1  0
 23 24  2  0
 24 25  1  0
 25  2  1  0
 24  4  1  0
 20 16  2  0
  1 26  1  0
  1 27  1  0
  1 28  1  0
  8 29  1  0
  9 30  1  0
 10 31  1  0
 10 32  1  0
 10 33  1  0
 11 34  1  0
 11 35  1  0
 12 36  1  0
 13 37  1  0
 13 38  1  0
 13 39  1  0
 14 40  1  0
 15 41  1  0
 15 42  1  0
 17 43  1  0
 18 44  1  0
 21 45  1  0
 22 46  1  0
 23 47  1  0
 25 48  1  0
M  END
>  <Energy>  (615) 
787.2864626604711

>  <compound_id>  (615) 
11599

>  <target_id>  (615) 
1

>  <reference_id>  (615) 
94

>  <inspiration_ids>  (615) 
[94, 59]

>  <energy_score>  (615) 
707.7124077244002

>  <distance_score>  (615) 
7.92309759001422

>  <path>  (615) 
/opt/xchem-fragalysis-2/maxwin/BulkDock/SCRATCH/511014/C11599-P94/C11599-P94.minimised.mol

>  <scratch_subdir>  (615) 
/opt/xchem-fragalysis-2/maxwin/BulkDock/SCRATCH/511014/C11599-P94

>  <fragmenstein_runtime>  (615) 
25.512325763702393

>  <fragmenstein_outcome>  (615) 
too moved

>  <fragmenstein_mode>  (615) 
expansion

>  <fragmenstein_error>  (615) 


$$$$
C11599-P59
     RDKit          3D

 48 50  0  0  0  0  0  0  0  0999 V2000
  -18.9500  -18.6181   34.6679 C   0  0  0  0  0  0  0  0  0  0  0  0
  -17.6164  -17.9879   34.8024 C   0  0  0  0  0  0  0  0  0  0  0  0
  -17.3410  -16.7046   34.7161 N   0  0  0  0  0  0  0  0  0  0  0  0
  -15.9827  -16.5473   34.9200 C   0  0  0  0  0  0  0  0  0  0  0  0
  -15.1493  -15.3785   34.9289 C   0  0  0  0  0  0  0  0  0  0  0  0
  -15.7136  -13.8921   34.9510 C   0  0  0  0  0  0  0  0  0  0  0  0
  -16.9129  -13.8481   34.9804 O   0  0  0  0  0  0  0  0  0  0  0  0
  -14.7086  -12.8036   35.0158 N   0  0  0  0  0  0  0  0  0  0  0  0
  -14.8735  -11.3005   35.2400 C   0  0  0  0  0  0  0  0  0  0  0  0
  -15.6012  -11.0704   36.5626 C   0  0  0  0  0  0  0  0  0  0  0  0
  -13.4969  -10.4595   35.2152 C   0  0  0  0  0  0  0  0  0  0  0  0
  -13.4190   -8.9042   35.4821 C   0  0  0  0  0  0  0  0  0  0  0  0
  -14.3694   -8.1735   34.5360 C   0  0  0  0  0  0  0  0  0  0  0  0
  -11.9963   -8.4963   35.4572 N   0  0  0  0  0  0  0  0  0  0  0  0
  -11.5281   -7.3260   34.7347 C   0  0  0  0  0  0  0  0  0  0  0  0
  -11.6303   -6.0411   35.5061 C   0  0  0  0  0  0  0  0  0  0  0  0
  -12.5002   -4.9445   35.2549 C   0  0  0  0  0  0  0  0  0  0  0  0
  -11.9583   -3.9038   35.9624 C   0  0  0  0  0  0  0  0  0  0  0  0
  -10.8737   -4.3404   36.6393 O   0  0  0  0  0  0  0  0  0  0  0  0
  -10.6808   -5.6899   36.3857 N   0  0  0  0  0  0  0  0  0  0  0  0
  -13.7854  -15.7221   34.9532 C   0  0  0  0  0  0  0  0  0  0  0  0
  -13.2538  -17.0120   35.1211 C   0  0  0  0  0  0  0  0  0  0  0  0
  -14.0815  -18.1017   35.2533 C   0  0  0  0  0  0  0  0  0  0  0  0
  -15.4311  -17.8361   35.0927 C   0  0  0  0  0  0  0  0  0  0  0  0
  -16.4874  -18.7103   35.0553 N   0  0  0  0  0  0  0  0  0  0  0  0
  -19.2246  -19.1393   35.5901 H   0  0  0  0  0  0  0  0  0  0  0  0
  -18.9539  -19.3389   33.8445 H   0  0  0  0  0  0  0  0  0  0  0  0
  -19.7143  -17.8623   34.4627 H   0  0  0  0  0  0  0  0  0  0  0  0
  -13.7999  -13.1894   34.8823 H   0  0  0  0  0  0  0  0  0  0  0  0
  -15.5111  -10.9566   34.4181 H   0  0  0  0  0  0  0  0  0  0  0  0
  -15.8128  -10.0091   36.7218 H   0  0  0  0  0  0  0  0  0  0  0  0
  -16.5581  -11.6019   36.5843 H   0  0  0  0  0  0  0  0  0  0  0  0
  -15.0040  -11.4322   37.4064 H   0  0  0  0  0  0  0  0  0  0  0  0
  -13.0886  -10.6133   34.2213 H   0  0  0  0  0  0  0  0  0  0  0  0
  -12.8178  -10.9282   35.9302 H   0  0  0  0  0  0  0  0  0  0  0  0
  -13.7787   -8.7212   36.5018 H   0  0  0  0  0  0  0  0  0  0  0  0
  -14.1158   -8.3529   33.4899 H   0  0  0  0  0  0  0  0  0  0  0  0
  -15.3998   -8.5134   34.6840 H   0  0  0  0  0  0  0  0  0  0  0  0
  -14.3700   -7.0965   34.7177 H   0  0  0  0  0  0  0  0  0  0  0  0
  -11.5680   -8.5503   36.3800 H   0  0  0  0  0  0  0  0  0  0  0  0
  -10.4700   -7.4972   34.5000 H   0  0  0  0  0  0  0  0  0  0  0  0
  -12.0209   -7.2279   33.7645 H   0  0  0  0  0  0  0  0  0  0  0  0
  -13.3361   -4.8980   34.5731 H   0  0  0  0  0  0  0  0  0  0  0  0
  -12.2019   -2.8583   36.0798 H   0  0  0  0  0  0  0  0  0  0  0  0
  -13.0425  -14.9710   34.8816 H   0  0  0  0  0  0  0  0  0  0  0  0
  -12.1716  -17.1388   35.1660 H   0  0  0  0  0  0  0  0  0  0  0  0
  -13.6876  -19.0908   35.4264 H   0  0  0  0  0  0  0  0  0  0  0  0
  -16.4360  -19.7126   35.1698 H   0  0  0  0  0  0  0  0  0  0  0  0
  1  2  1  0
  2  3  2  0
  3  4  1  0
  4  5  2  0
  5  6  1  0
  6  7  2  0
  6  8  1  0
  8  9  1  0
  9 10  1  0
  9 11  1  0
 11 12  1  0
 12 13  1  0
 12 14  1  0
 14 15  1  0
 15 16  1  0
 16 17  1  0
 17 18  2  0
 18 19  1  0
 19 20  1  0
  5 21  1  0
 21 22  2  0
 22 23  1  0
 23 24  2  0
 24 25  1  0
 25  2  1  0
 24  4  1  0
 20 16  2  0
  1 26  1  0
  1 27  1  0
  1 28  1  0
  8 29  1  0
  9 30  1  0
 10 31  1  0
 10 32  1  0
 10 33  1  0
 11 34  1  0
 11 35  1  0
 12 36  1  0
 13 37  1  0
 13 38  1  0
 13 39  1  0
 14 40  1  0
 15 41  1  0
 15 42  1  0
 17 43  1  0
 18 44  1  0
 21 45  1  0
 22 46  1  0
 23 47  1  0
 25 48  1  0
M  END
>  <Energy>  (616) 
75.765423113027779

>  <compound_id>  (616) 
11599

>  <target_id>  (616) 
1

>  <reference_id>  (616) 
59

>  <inspiration_ids>  (616) 
[94, 59]

>  <energy_score>  (616) 
-3.8086318230371035

>  <distance_score>  (616) 
11.600396632816826

>  <path>  (616) 
/opt/xchem-fragalysis-2/maxwin/BulkDock/SCRATCH/511014/C11599-P59/C11599-P59.minimised.mol

>  <scratch_subdir>  (616) 
/opt/xchem-fragalysis-2/maxwin/BulkDock/SCRATCH/511014/C11599-P59

>  <fragmenstein_runtime>  (616) 
31.953502893447876

>  <fragmenstein_outcome>  (616) 
too moved

>  <fragmenstein_mode>  (616) 
expansion

>  <fragmenstein_error>  (616) 


$$$$
C11602-P94
     RDKit          3D

 34 36  0  0  0  0  0  0  0  0999 V2000
   -3.2058   -8.3523   32.1417 C   0  0  0  0  0  0  0  0  0  0  0  0
   -3.7880   -9.5440   31.7115 N   0  0  0  0  0  0  0  0  0  0  0  0
   -2.2235   -9.9116   32.1529 C   0  0  0  0  0  0  0  0  0  0  0  0
   -0.9216   -8.9200   31.8833 C   0  0  0  0  0  0  0  0  0  0  0  0
   -0.1602   -8.7529   30.6927 C   0  0  0  0  0  0  0  0  0  0  0  0
    0.6372   -7.6656   30.9464 C   0  0  0  0  0  0  0  0  0  0  0  0
    0.4155   -7.2252   32.2077 O   0  0  0  0  0  0  0  0  0  0  0  0
   -0.5306   -8.0328   32.8178 N   0  0  0  0  0  0  0  0  0  0  0  0
   -5.1867  -10.4940   32.3152 C   0  0  0  0  0  0  0  0  0  0  0  0
   -5.5869  -10.0225   33.3071 O   0  0  0  0  0  0  0  0  0  0  0  0
   -6.3995  -11.9978   31.7519 C   0  0  0  0  0  0  0  0  0  0  0  0
   -7.8879  -11.6040   32.3848 C   0  0  0  0  0  0  0  0  0  0  0  0
   -8.8370  -12.6122   33.0610 C   0  0  0  0  0  0  0  0  0  0  0  0
   -9.0724  -14.2452   32.5289 C   0  0  0  0  0  0  0  0  0  0  0  0
   -7.8314  -14.6289   32.2960 C   0  0  0  0  0  0  0  0  0  0  0  0
   -7.2838  -15.7151   33.1626 N   0  0  0  0  0  0  0  0  0  0  0  0
   -6.1716  -16.3379   32.5217 C   0  0  0  0  0  0  0  0  0  0  0  0
   -6.5509  -17.8333   32.5995 C   0  0  0  0  0  0  0  0  0  0  0  0
   -7.4653  -18.0000   33.6146 F   0  0  0  0  0  0  0  0  0  0  0  0
   -5.7882  -18.9402   32.6703 F   0  0  0  0  0  0  0  0  0  0  0  0
   -5.9809  -15.3454   31.2624 N   0  0  0  0  0  0  0  0  0  0  0  0
   -6.7822  -13.7886   31.3825 C   0  0  0  0  0  0  0  0  0  0  0  0
   -2.6949   -7.6901   31.4340 H   0  0  0  0  0  0  0  0  0  0  0  0
   -2.9948   -8.2561   33.2235 H   0  0  0  0  0  0  0  0  0  0  0  0
   -4.1876   -7.9492   32.0537 H   0  0  0  0  0  0  0  0  0  0  0  0
   -2.0804  -10.2727   33.1749 H   0  0  0  0  0  0  0  0  0  0  0  0
   -1.9818  -10.5093   31.2686 H   0  0  0  0  0  0  0  0  0  0  0  0
   -0.2129   -9.3148   29.7716 H   0  0  0  0  0  0  0  0  0  0  0  0
    1.3765   -7.1159   30.3815 H   0  0  0  0  0  0  0  0  0  0  0  0
   -8.5479  -10.8468   31.8987 H   0  0  0  0  0  0  0  0  0  0  0  0
   -9.6099  -12.1036   32.5023 H   0  0  0  0  0  0  0  0  0  0  0  0
   -9.8190  -14.9199   33.0002 H   0  0  0  0  0  0  0  0  0  0  0  0
   -7.8844  -16.1695   33.8382 H   0  0  0  0  0  0  0  0  0  0  0  0
   -6.9964  -17.9327   31.6352 H   0  0  0  0  0  0  0  0  0  0  0  0
  1  2  1  0
  2  3  1  0
  3  4  1  0
  4  5  1  0
  5  6  2  0
  6  7  1  0
  7  8  1  0
  2  9  1  0
  9 10  2  0
  9 11  1  0
 11 12  2  0
 12 13  1  0
 13 14  2  0
 14 15  1  0
 15 16  1  0
 16 17  1  0
 17 18  1  0
 18 19  1  0
 18 20  1  0
 17 21  2  0
 21 22  1  0
  8  4  2  0
 22 11  1  0
 22 15  2  0
  1 23  1  0
  1 24  1  0
  1 25  1  0
  3 26  1  0
  3 27  1  0
  5 28  1  0
  6 29  1  0
 12 30  1  0
 13 31  1  0
 14 32  1  0
 16 33  1  0
 18 34  1  0
M  END
>  <Energy>  (617) 
806.31798953048622

>  <compound_id>  (617) 
11602

>  <target_id>  (617) 
1

>  <reference_id>  (617) 
94

>  <inspiration_ids>  (617) 
[94, 59]

>  <energy_score>  (617) 
728.7848622883976

>  <distance_score>  (617) 
9.538858401827271

>  <path>  (617) 
/opt/xchem-fragalysis-2/maxwin/BulkDock/SCRATCH/511014/C11602-P94/C11602-P94.minimised.mol

>  <scratch_subdir>  (617) 
/opt/xchem-fragalysis-2/maxwin/BulkDock/SCRATCH/511014/C11602-P94

>  <fragmenstein_runtime>  (617) 
16.923100471496582

>  <fragmenstein_outcome>  (617) 
too moved

>  <fragmenstein_mode>  (617) 
expansion

>  <fragmenstein_error>  (617) 


$$$$
C11602-P59
     RDKit          3D

 34 36  0  0  0  0  0  0  0  0999 V2000
   -6.9532  -12.3887   31.8583 C   0  0  0  0  0  0  0  0  0  0  0  0
   -6.4350  -13.5480   30.5134 N   0  0  0  0  0  0  0  0  0  0  0  0
   -5.7240  -11.7407   29.7891 C   0  0  0  0  0  0  0  0  0  0  0  0
   -6.8111  -10.0154   29.4789 C   0  0  0  0  0  0  0  0  0  0  0  0
   -6.6098   -8.5679   28.5946 C   0  0  0  0  0  0  0  0  0  0  0  0
   -7.8098   -8.1556   28.1226 C   0  0  0  0  0  0  0  0  0  0  0  0
   -8.6983   -8.8185   28.8531 O   0  0  0  0  0  0  0  0  0  0  0  0
   -8.0990   -9.7223   29.7158 N   0  0  0  0  0  0  0  0  0  0  0  0
   -5.2491  -14.9365   30.5941 C   0  0  0  0  0  0  0  0  0  0  0  0
   -4.5555  -15.2231   31.5305 O   0  0  0  0  0  0  0  0  0  0  0  0
   -5.0571  -16.1990   29.3013 C   0  0  0  0  0  0  0  0  0  0  0  0
   -4.0523  -16.7354   28.1448 C   0  0  0  0  0  0  0  0  0  0  0  0
   -4.2699  -17.9432   27.2749 C   0  0  0  0  0  0  0  0  0  0  0  0
   -5.5081  -18.6585   27.3616 C   0  0  0  0  0  0  0  0  0  0  0  0
   -6.3532  -18.2449   28.4399 C   0  0  0  0  0  0  0  0  0  0  0  0
   -7.2547  -18.9403   29.2646 N   0  0  0  0  0  0  0  0  0  0  0  0
   -7.1953  -18.4992   30.6786 C   0  0  0  0  0  0  0  0  0  0  0  0
   -7.2697  -18.7781   32.4643 C   0  0  0  0  0  0  0  0  0  0  0  0
   -6.6493  -19.9177   32.9387 F   0  0  0  0  0  0  0  0  0  0  0  0
   -8.2807  -18.4742   33.3516 F   0  0  0  0  0  0  0  0  0  0  0  0
   -6.3963  -17.4855   30.5522 N   0  0  0  0  0  0  0  0  0  0  0  0
   -5.9810  -17.2166   29.3319 C   0  0  0  0  0  0  0  0  0  0  0  0
   -7.4569  -13.0879   32.5028 H   0  0  0  0  0  0  0  0  0  0  0  0
   -7.7104  -11.6417   31.7439 H   0  0  0  0  0  0  0  0  0  0  0  0
   -6.2961  -11.9447   32.6087 H   0  0  0  0  0  0  0  0  0  0  0  0
   -5.7855  -11.0986   30.6844 H   0  0  0  0  0  0  0  0  0  0  0  0
   -4.7294  -11.9098   29.3744 H   0  0  0  0  0  0  0  0  0  0  0  0
   -5.7196   -8.1494   28.1666 H   0  0  0  0  0  0  0  0  0  0  0  0
   -8.1772   -7.4300   27.4157 H   0  0  0  0  0  0  0  0  0  0  0  0
   -3.0566  -16.2868   28.0541 H   0  0  0  0  0  0  0  0  0  0  0  0
   -3.4896  -18.2495   26.5840 H   0  0  0  0  0  0  0  0  0  0  0  0
   -5.6441  -19.5788   26.8250 H   0  0  0  0  0  0  0  0  0  0  0  0
   -7.5149  -19.8428   28.9776 H   0  0  0  0  0  0  0  0  0  0  0  0
   -6.6336  -17.9445   32.6644 H   0  0  0  0  0  0  0  0  0  0  0  0
  1  2  1  0
  2  3  1  0
  3  4  1  0
  4  5  1  0
  5  6  2  0
  6  7  1  0
  7  8  1  0
  2  9  1  0
  9 10  2  0
  9 11  1  0
 11 12  2  0
 12 13  1  0
 13 14  2  0
 14 15  1  0
 15 16  1  0
 16 17  1  0
 17 18  1  0
 18 19  1  0
 18 20  1  0
 17 21  2  0
 21 22  1  0
  8  4  2  0
 22 11  1  0
 22 15  2  0
  1 23  1  0
  1 24  1  0
  1 25  1  0
  3 26  1  0
  3 27  1  0
  5 28  1  0
  6 29  1  0
 12 30  1  0
 13 31  1  0
 14 32  1  0
 16 33  1  0
 18 34  1  0
M  END
>  <Energy>  (618) 
678.16435398132512

>  <compound_id>  (618) 
11602

>  <target_id>  (618) 
1

>  <reference_id>  (618) 
59

>  <inspiration_ids>  (618) 
[94, 59]

>  <energy_score>  (618) 
600.6312267392406

>  <distance_score>  (618) 
10.188359882703743

>  <path>  (618) 
/opt/xchem-fragalysis-2/maxwin/BulkDock/SCRATCH/511014/C11602-P59/C11602-P59.minimised.mol

>  <scratch_subdir>  (618) 
/opt/xchem-fragalysis-2/maxwin/BulkDock/SCRATCH/511014/C11602-P59

>  <fragmenstein_runtime>  (618) 
15.689465045928955

>  <fragmenstein_outcome>  (618) 
too moved

>  <fragmenstein_mode>  (618) 
expansion

>  <fragmenstein_error>  (618) 


$$$$
C11604-P94
     RDKit          3D

 46 49  0  0  0  0  0  0  0  0999 V2000
   -9.3856   -8.2347   36.3547 C   0  0  0  0  0  0  0  0  0  0  0  0
   -9.5622   -9.1169   35.2487 N   0  0  0  0  0  0  0  0  0  0  0  0
   -8.6494  -10.7472   34.7432 C   0  0  0  0  0  0  0  0  0  0  0  0
   -7.7388  -10.9319   35.4743 O   0  0  0  0  0  0  0  0  0  0  0  0
   -8.8674  -12.4184   33.4134 C   0  0  0  0  0  0  0  0  0  0  0  0
   -7.7179  -13.4384   32.9160 C   0  0  0  0  0  0  0  0  0  0  0  0
   -7.8563  -14.7415   32.3516 C   0  0  0  0  0  0  0  0  0  0  0  0
   -8.2721  -15.8663   33.0325 C   0  0  0  0  0  0  0  0  0  0  0  0
   -9.5780  -15.5604   33.2511 C   0  0  0  0  0  0  0  0  0  0  0  0
  -10.4158  -16.1868   34.1860 N   0  0  0  0  0  0  0  0  0  0  0  0
  -11.6666  -15.6858   34.0449 C   0  0  0  0  0  0  0  0  0  0  0  0
  -11.5890  -14.5535   33.4002 N   0  0  0  0  0  0  0  0  0  0  0  0
   -9.9804  -14.0059   33.2571 C   0  0  0  0  0  0  0  0  0  0  0  0
   -9.2589   -7.2023   34.6371 C   0  0  0  0  0  0  0  0  0  0  0  0
   -7.5766   -6.6764   34.1358 C   0  0  0  0  0  0  0  0  0  0  0  0
   -6.7570   -5.2413   34.4904 N   0  0  0  0  0  0  0  0  0  0  0  0
   -6.0458   -3.6922   33.6282 C   0  0  0  0  0  0  0  0  0  0  0  0
   -5.3657   -2.4461   34.2588 C   0  0  0  0  0  0  0  0  0  0  0  0
   -4.1731   -1.8207   33.7550 C   0  0  0  0  0  0  0  0  0  0  0  0
   -4.0880   -0.6264   34.4096 C   0  0  0  0  0  0  0  0  0  0  0  0
   -5.1820   -0.4775   35.1882 O   0  0  0  0  0  0  0  0  0  0  0  0
   -6.0140   -1.5729   35.0434 N   0  0  0  0  0  0  0  0  0  0  0  0
   -9.4252   -5.4481   35.5717 C   0  0  0  0  0  0  0  0  0  0  0  0
   -8.9761   -3.4229   35.3659 C   0  0  0  0  0  0  0  0  0  0  0  0
  -10.3088   -3.6625   36.0468 C   0  0  0  0  0  0  0  0  0  0  0  0
  -10.2568   -7.6179   36.5347 H   0  0  0  0  0  0  0  0  0  0  0  0
   -8.3513   -7.9164   36.5002 H   0  0  0  0  0  0  0  0  0  0  0  0
   -9.4618   -8.9267   37.2099 H   0  0  0  0  0  0  0  0  0  0  0  0
   -6.9991  -12.8539   32.2153 H   0  0  0  0  0  0  0  0  0  0  0  0
   -7.1802  -14.6203   31.4956 H   0  0  0  0  0  0  0  0  0  0  0  0
   -7.7724  -16.8047   33.1831 H   0  0  0  0  0  0  0  0  0  0  0  0
  -10.2325  -17.1151   34.5205 H   0  0  0  0  0  0  0  0  0  0  0  0
  -12.5627  -16.1873   34.3806 H   0  0  0  0  0  0  0  0  0  0  0  0
   -9.9487   -7.1344   33.7911 H   0  0  0  0  0  0  0  0  0  0  0  0
   -6.9414   -7.4022   34.6448 H   0  0  0  0  0  0  0  0  0  0  0  0
   -7.5324   -6.8555   33.0677 H   0  0  0  0  0  0  0  0  0  0  0  0
   -7.1602   -4.9010   35.3448 H   0  0  0  0  0  0  0  0  0  0  0  0
   -5.4712   -3.9682   32.7695 H   0  0  0  0  0  0  0  0  0  0  0  0
   -6.7755   -3.0560   33.0776 H   0  0  0  0  0  0  0  0  0  0  0  0
   -3.4769   -2.2021   33.0244 H   0  0  0  0  0  0  0  0  0  0  0  0
   -3.3817    0.1898   34.4224 H   0  0  0  0  0  0  0  0  0  0  0  0
   -8.8169   -6.0216   36.2512 H   0  0  0  0  0  0  0  0  0  0  0  0
   -8.1071   -2.8200   35.6520 H   0  0  0  0  0  0  0  0  0  0  0  0
   -9.2124   -2.6408   34.5832 H   0  0  0  0  0  0  0  0  0  0  0  0
  -10.4501   -3.1854   37.0376 H   0  0  0  0  0  0  0  0  0  0  0  0
  -11.2408   -3.3806   35.5145 H   0  0  0  0  0  0  0  0  0  0  0  0
  1  2  1  0
  2  3  1  0
  3  4  2  0
  3  5  1  0
  5  6  2  0
  6  7  1  0
  7  8  2  0
  8  9  1  0
  9 10  1  0
 10 11  1  0
 11 12  2  0
 12 13  1  0
  2 14  1  0
 14 15  1  0
 15 16  1  0
 16 17  1  0
 17 18  1  0
 18 19  1  0
 19 20  2  0
 20 21  1  0
 21 22  1  0
 14 23  1  0
 23 24  1  0
 24 25  1  0
 13  5  1  0
 22 18  2  0
 25 23  1  0
 13  9  2  0
  1 26  1  0
  1 27  1  0
  1 28  1  0
  6 29  1  0
  7 30  1  0
  8 31  1  0
 10 32  1  0
 11 33  1  0
 14 34  1  0
 15 35  1  0
 15 36  1  0
 16 37  1  0
 17 38  1  0
 17 39  1  0
 19 40  1  0
 20 41  1  0
 23 42  1  0
 24 43  1  0
 24 44  1  0
 25 45  1  0
 25 46  1  0
M  END
>  <Energy>  (619) 
1264.2515852842434

>  <compound_id>  (619) 
11604

>  <target_id>  (619) 
1

>  <reference_id>  (619) 
94

>  <inspiration_ids>  (619) 
[94, 59]

>  <energy_score>  (619) 
1153.4246133867991

>  <distance_score>  (619) 
8.046035384856102

>  <path>  (619) 
/opt/xchem-fragalysis-2/maxwin/BulkDock/SCRATCH/511014/C11604-P94/C11604-P94.minimised.mol

>  <scratch_subdir>  (619) 
/opt/xchem-fragalysis-2/maxwin/BulkDock/SCRATCH/511014/C11604-P94

>  <fragmenstein_runtime>  (619) 
15.684627771377563

>  <fragmenstein_outcome>  (619) 
too moved

>  <fragmenstein_mode>  (619) 
expansion

>  <fragmenstein_error>  (619) 


$$$$
C11604-P59
     RDKit          3D

 46 49  0  0  0  0  0  0  0  0999 V2000
   -9.5850   -7.3011   35.9673 C   0  0  0  0  0  0  0  0  0  0  0  0
   -9.0579   -8.2569   35.0169 N   0  0  0  0  0  0  0  0  0  0  0  0
   -8.6885  -10.1345   35.2335 C   0  0  0  0  0  0  0  0  0  0  0  0
   -8.7900  -10.6942   36.3067 O   0  0  0  0  0  0  0  0  0  0  0  0
   -8.2616  -11.5158   33.7649 C   0  0  0  0  0  0  0  0  0  0  0  0
   -7.1083  -11.6408   33.0905 C   0  0  0  0  0  0  0  0  0  0  0  0
   -6.9268  -12.4576   32.0319 C   0  0  0  0  0  0  0  0  0  0  0  0
   -7.2965  -13.8052   31.6510 C   0  0  0  0  0  0  0  0  0  0  0  0
   -8.3876  -14.1555   32.4390 C   0  0  0  0  0  0  0  0  0  0  0  0
   -9.1723  -15.2473   32.6920 N   0  0  0  0  0  0  0  0  0  0  0  0
  -10.1988  -15.0181   33.4136 C   0  0  0  0  0  0  0  0  0  0  0  0
  -10.0995  -13.7526   33.3533 N   0  0  0  0  0  0  0  0  0  0  0  0
   -8.9283  -13.0696   33.1701 C   0  0  0  0  0  0  0  0  0  0  0  0
   -7.8339   -6.6618   35.1641 C   0  0  0  0  0  0  0  0  0  0  0  0
   -6.9899   -6.2052   33.7881 C   0  0  0  0  0  0  0  0  0  0  0  0
   -5.5940   -4.8615   33.2153 N   0  0  0  0  0  0  0  0  0  0  0  0
   -5.0064   -3.1351   33.1242 C   0  0  0  0  0  0  0  0  0  0  0  0
   -3.6305   -2.6961   32.6395 C   0  0  0  0  0  0  0  0  0  0  0  0
   -2.7435   -1.8019   33.3054 C   0  0  0  0  0  0  0  0  0  0  0  0
   -1.7002   -1.6264   32.4360 C   0  0  0  0  0  0  0  0  0  0  0  0
   -1.9319   -2.3487   31.3176 O   0  0  0  0  0  0  0  0  0  0  0  0
   -3.1347   -3.0102   31.4440 N   0  0  0  0  0  0  0  0  0  0  0  0
   -7.4425   -4.7399   35.6407 C   0  0  0  0  0  0  0  0  0  0  0  0
   -8.1949   -2.9719   36.1991 C   0  0  0  0  0  0  0  0  0  0  0  0
   -7.2171   -2.8083   35.2308 C   0  0  0  0  0  0  0  0  0  0  0  0
   -9.8877   -6.3210   35.5894 H   0  0  0  0  0  0  0  0  0  0  0  0
   -9.0744   -7.3809   36.9297 H   0  0  0  0  0  0  0  0  0  0  0  0
  -10.5589   -7.7446   36.2269 H   0  0  0  0  0  0  0  0  0  0  0  0
   -6.2508  -10.9869   33.3139 H   0  0  0  0  0  0  0  0  0  0  0  0
   -6.3212  -11.8461   31.3712 H   0  0  0  0  0  0  0  0  0  0  0  0
   -6.7853  -14.3411   30.8800 H   0  0  0  0  0  0  0  0  0  0  0  0
   -8.8465  -16.1751   32.5512 H   0  0  0  0  0  0  0  0  0  0  0  0
  -10.9103  -15.6282   33.9460 H   0  0  0  0  0  0  0  0  0  0  0  0
   -7.1516   -7.2203   35.8017 H   0  0  0  0  0  0  0  0  0  0  0  0
   -6.5325   -7.2270   33.9901 H   0  0  0  0  0  0  0  0  0  0  0  0
   -7.5109   -6.5401   32.8818 H   0  0  0  0  0  0  0  0  0  0  0  0
   -5.3583   -5.1181   32.2602 H   0  0  0  0  0  0  0  0  0  0  0  0
   -5.0146   -2.7813   34.1615 H   0  0  0  0  0  0  0  0  0  0  0  0
   -5.7101   -2.5596   32.5031 H   0  0  0  0  0  0  0  0  0  0  0  0
   -2.8589   -1.3596   34.2832 H   0  0  0  0  0  0  0  0  0  0  0  0
   -0.7787   -1.0638   32.4526 H   0  0  0  0  0  0  0  0  0  0  0  0
   -6.4524   -4.8279   35.2727 H   0  0  0  0  0  0  0  0  0  0  0  0
   -9.2366   -2.6992   35.9735 H   0  0  0  0  0  0  0  0  0  0  0  0
   -7.8944   -2.4133   37.1060 H   0  0  0  0  0  0  0  0  0  0  0  0
   -6.3216   -2.2570   35.5489 H   0  0  0  0  0  0  0  0  0  0  0  0
   -7.6160   -2.2115   34.3946 H   0  0  0  0  0  0  0  0  0  0  0  0
  1  2  1  0
  2  3  1  0
  3  4  2  0
  3  5  1  0
  5  6  2  0
  6  7  1  0
  7  8  2  0
  8  9  1  0
  9 10  1  0
 10 11  1  0
 11 12  2  0
 12 13  1  0
  2 14  1  0
 14 15  1  0
 15 16  1  0
 16 17  1  0
 17 18  1  0
 18 19  1  0
 19 20  2  0
 20 21  1  0
 21 22  1  0
 14 23  1  0
 23 24  1  0
 24 25  1  0
 13  5  1  0
 22 18  2  0
 25 23  1  0
 13  9  2  0
  1 26  1  0
  1 27  1  0
  1 28  1  0
  6 29  1  0
  7 30  1  0
  8 31  1  0
 10 32  1  0
 11 33  1  0
 14 34  1  0
 15 35  1  0
 15 36  1  0
 16 37  1  0
 17 38  1  0
 17 39  1  0
 19 40  1  0
 20 41  1  0
 23 42  1  0
 24 43  1  0
 24 44  1  0
 25 45  1  0
 25 46  1  0
M  END
>  <Energy>  (620) 
1122.3314217836171

>  <compound_id>  (620) 
11604

>  <target_id>  (620) 
1

>  <reference_id>  (620) 
59

>  <inspiration_ids>  (620) 
[94, 59]

>  <energy_score>  (620) 
1011.5044498861818

>  <distance_score>  (620) 
8.17098488958881

>  <path>  (620) 
/opt/xchem-fragalysis-2/maxwin/BulkDock/SCRATCH/511014/C11604-P59/C11604-P59.minimised.mol

>  <scratch_subdir>  (620) 
/opt/xchem-fragalysis-2/maxwin/BulkDock/SCRATCH/511014/C11604-P59

>  <fragmenstein_runtime>  (620) 
18.33785891532898

>  <fragmenstein_outcome>  (620) 
too moved

>  <fragmenstein_mode>  (620) 
expansion

>  <fragmenstein_error>  (620) 


$$$$
C11605-P94
     RDKit          3D

 43 46  0  0  0  0  0  0  0  0999 V2000
   -7.9075  -10.1965   39.7685 O   0  0  0  0  0  0  0  0  0  0  0  0
   -7.6296  -11.1848   38.5220 C   0  0  0  0  0  0  0  0  0  0  0  0
   -7.4816  -10.4770   37.6880 N   0  0  0  0  0  0  0  0  0  0  0  0
   -7.5494   -8.8315   37.2795 C   0  0  0  0  0  0  0  0  0  0  0  0
   -6.5331   -8.1331   36.1323 C   0  0  0  0  0  0  0  0  0  0  0  0
   -6.6292   -7.1753   34.8714 N   0  0  0  0  0  0  0  0  0  0  0  0
   -6.9971   -5.5002   34.6122 C   0  0  0  0  0  0  0  0  0  0  0  0
   -6.0442   -3.8346   34.0102 C   0  0  0  0  0  0  0  0  0  0  0  0
   -5.5767   -3.2199   32.7138 C   0  0  0  0  0  0  0  0  0  0  0  0
   -5.0388   -1.9887   32.9774 C   0  0  0  0  0  0  0  0  0  0  0  0
   -5.3315   -1.6995   34.2413 O   0  0  0  0  0  0  0  0  0  0  0  0
   -6.0803   -2.6978   34.7569 N   0  0  0  0  0  0  0  0  0  0  0  0
   -9.0207   -8.4885   37.1787 C   0  0  0  0  0  0  0  0  0  0  0  0
   -9.8506   -9.4330   36.3551 C   0  0  0  0  0  0  0  0  0  0  0  0
   -9.8125   -7.9978   35.9864 C   0  0  0  0  0  0  0  0  0  0  0  0
   -7.7859  -12.6518   38.8688 C   0  0  0  0  0  0  0  0  0  0  0  0
   -8.9991  -12.9543   39.5395 C   0  0  0  0  0  0  0  0  0  0  0  0
   -9.4754  -14.2640   39.7530 C   0  0  0  0  0  0  0  0  0  0  0  0
   -8.8095  -15.3726   39.2460 C   0  0  0  0  0  0  0  0  0  0  0  0
   -7.5997  -15.1049   38.6205 C   0  0  0  0  0  0  0  0  0  0  0  0
   -6.7100  -15.9729   38.0337 N   0  0  0  0  0  0  0  0  0  0  0  0
   -5.6146  -15.2521   37.6839 C   0  0  0  0  0  0  0  0  0  0  0  0
   -5.7773  -13.9708   37.9404 N   0  0  0  0  0  0  0  0  0  0  0  0
   -7.0436  -13.8140   38.4754 C   0  0  0  0  0  0  0  0  0  0  0  0
   -7.2426  -10.2186   36.7598 H   0  0  0  0  0  0  0  0  0  0  0  0
   -7.2100   -8.3973   38.2297 H   0  0  0  0  0  0  0  0  0  0  0  0
   -5.7393   -7.7619   36.7480 H   0  0  0  0  0  0  0  0  0  0  0  0
   -6.0277   -9.0051   35.6937 H   0  0  0  0  0  0  0  0  0  0  0  0
   -7.4418   -7.5611   34.3791 H   0  0  0  0  0  0  0  0  0  0  0  0
   -7.8294   -5.3069   35.2706 H   0  0  0  0  0  0  0  0  0  0  0  0
   -7.3813   -5.9315   33.6962 H   0  0  0  0  0  0  0  0  0  0  0  0
   -5.5339   -3.5729   31.7023 H   0  0  0  0  0  0  0  0  0  0  0  0
   -4.5059   -1.2378   32.4191 H   0  0  0  0  0  0  0  0  0  0  0  0
   -9.4091   -8.2227   38.1590 H   0  0  0  0  0  0  0  0  0  0  0  0
   -9.3516  -10.1326   35.7054 H   0  0  0  0  0  0  0  0  0  0  0  0
  -10.7618   -9.8195   36.7979 H   0  0  0  0  0  0  0  0  0  0  0  0
  -10.7906   -7.5465   36.0771 H   0  0  0  0  0  0  0  0  0  0  0  0
   -9.2941   -7.6098   35.1363 H   0  0  0  0  0  0  0  0  0  0  0  0
   -9.6128  -12.1246   39.8992 H   0  0  0  0  0  0  0  0  0  0  0  0
  -10.4164  -14.4006   40.2846 H   0  0  0  0  0  0  0  0  0  0  0  0
   -9.1986  -16.3773   39.3648 H   0  0  0  0  0  0  0  0  0  0  0  0
   -6.8221  -16.9722   37.9362 H   0  0  0  0  0  0  0  0  0  0  0  0
   -4.7351  -15.7011   37.2406 H   0  0  0  0  0  0  0  0  0  0  0  0
  1  2  2  0
  2  3  1  0
  3  4  1  0
  4  5  1  0
  5  6  1  0
  6  7  1  0
  7  8  1  0
  8  9  1  0
  9 10  2  0
 10 11  1  0
 11 12  1  0
  4 13  1  0
 13 14  1  0
 14 15  1  0
  2 16  1  0
 16 17  2  0
 17 18  1  0
 18 19  2  0
 19 20  1  0
 20 21  1  0
 21 22  1  0
 22 23  2  0
 23 24  1  0
 12  8  2  0
 15 13  1  0
 24 16  1  0
 24 20  2  0
  3 25  1  0
  4 26  1  0
  5 27  1  0
  5 28  1  0
  6 29  1  0
  7 30  1  0
  7 31  1  0
  9 32  1  0
 10 33  1  0
 13 34  1  0
 14 35  1  0
 14 36  1  0
 15 37  1  0
 15 38  1  0
 17 39  1  0
 18 40  1  0
 19 41  1  0
 21 42  1  0
 22 43  1  0
M  END
>  <Energy>  (621) 
496.61917684151013

>  <compound_id>  (621) 
11605

>  <target_id>  (621) 
1

>  <reference_id>  (621) 
94

>  <inspiration_ids>  (621) 
[94, 59]

>  <energy_score>  (621) 
369.7930721425976

>  <distance_score>  (621) 
10.208843852888632

>  <path>  (621) 
/opt/xchem-fragalysis-2/maxwin/BulkDock/SCRATCH/511014/C11605-P94/C11605-P94.minimised.mol

>  <scratch_subdir>  (621) 
/opt/xchem-fragalysis-2/maxwin/BulkDock/SCRATCH/511014/C11605-P94

>  <fragmenstein_runtime>  (621) 
36.457809925079346

>  <fragmenstein_outcome>  (621) 
too moved

>  <fragmenstein_mode>  (621) 
expansion

>  <fragmenstein_error>  (621) 


$$$$
C11605-P59
     RDKit          3D

 43 46  0  0  0  0  0  0  0  0999 V2000
   -7.2626  -12.0307   32.9360 O   0  0  0  0  0  0  0  0  0  0  0  0
   -6.8197  -12.0934   31.8144 C   0  0  0  0  0  0  0  0  0  0  0  0
   -6.1783  -10.6617   30.7758 N   0  0  0  0  0  0  0  0  0  0  0  0
   -5.8669   -8.5730   31.2633 C   0  0  0  0  0  0  0  0  0  0  0  0
   -6.3285   -6.5249   31.7163 C   0  0  0  0  0  0  0  0  0  0  0  0
   -5.5019   -4.8787   32.6286 N   0  0  0  0  0  0  0  0  0  0  0  0
   -4.9936   -3.2738   32.1431 C   0  0  0  0  0  0  0  0  0  0  0  0
   -3.6968   -2.6159   32.5522 C   0  0  0  0  0  0  0  0  0  0  0  0
   -2.4455   -2.6316   31.8722 C   0  0  0  0  0  0  0  0  0  0  0  0
   -1.6863   -1.6936   32.5179 C   0  0  0  0  0  0  0  0  0  0  0  0
   -2.4228   -1.1164   33.4942 O   0  0  0  0  0  0  0  0  0  0  0  0
   -3.6935   -1.6629   33.5000 N   0  0  0  0  0  0  0  0  0  0  0  0
   -7.0025   -7.4233   32.7966 C   0  0  0  0  0  0  0  0  0  0  0  0
   -6.1115   -7.9640   34.3925 C   0  0  0  0  0  0  0  0  0  0  0  0
   -7.3381   -7.2231   34.3232 C   0  0  0  0  0  0  0  0  0  0  0  0
   -6.6120  -13.9419   31.0905 C   0  0  0  0  0  0  0  0  0  0  0  0
   -5.4620  -14.0982   30.3906 C   0  0  0  0  0  0  0  0  0  0  0  0
   -3.8164  -14.9668   30.4380 C   0  0  0  0  0  0  0  0  0  0  0  0
   -3.4545  -15.9502   31.2568 C   0  0  0  0  0  0  0  0  0  0  0  0
   -4.7362  -16.2674   31.5580 C   0  0  0  0  0  0  0  0  0  0  0  0
   -5.2032  -17.6048   31.5458 N   0  0  0  0  0  0  0  0  0  0  0  0
   -5.5365  -17.6930   30.2408 C   0  0  0  0  0  0  0  0  0  0  0  0
   -5.8489  -16.4483   29.8976 N   0  0  0  0  0  0  0  0  0  0  0  0
   -5.8641  -15.4533   31.1825 C   0  0  0  0  0  0  0  0  0  0  0  0
   -5.9427  -10.9962   29.8262 H   0  0  0  0  0  0  0  0  0  0  0  0
   -4.8596   -8.7788   31.8118 H   0  0  0  0  0  0  0  0  0  0  0  0
   -5.4212   -7.2196   32.0287 H   0  0  0  0  0  0  0  0  0  0  0  0
   -6.4159   -6.0217   30.7356 H   0  0  0  0  0  0  0  0  0  0  0  0
   -5.7684   -4.9611   33.5981 H   0  0  0  0  0  0  0  0  0  0  0  0
   -5.7779   -2.5562   32.4268 H   0  0  0  0  0  0  0  0  0  0  0  0
   -4.9954   -3.2363   31.0626 H   0  0  0  0  0  0  0  0  0  0  0  0
   -2.1445   -3.2019   31.0090 H   0  0  0  0  0  0  0  0  0  0  0  0
   -0.6802   -1.3183   32.4039 H   0  0  0  0  0  0  0  0  0  0  0  0
   -8.0453   -7.0887   32.5984 H   0  0  0  0  0  0  0  0  0  0  0  0
   -6.2886   -8.4585   35.3825 H   0  0  0  0  0  0  0  0  0  0  0  0
   -5.5665   -8.8907   34.1176 H   0  0  0  0  0  0  0  0  0  0  0  0
   -8.2718   -7.6085   34.7487 H   0  0  0  0  0  0  0  0  0  0  0  0
   -7.3390   -6.2241   34.7425 H   0  0  0  0  0  0  0  0  0  0  0  0
   -5.3174  -13.1507   29.8210 H   0  0  0  0  0  0  0  0  0  0  0  0
   -3.0213  -14.5132   29.8236 H   0  0  0  0  0  0  0  0  0  0  0  0
   -2.5657  -16.5475   31.2570 H   0  0  0  0  0  0  0  0  0  0  0  0
   -4.7511  -18.3623   32.0297 H   0  0  0  0  0  0  0  0  0  0  0  0
   -5.5527  -18.5896   29.6382 H   0  0  0  0  0  0  0  0  0  0  0  0
  1  2  2  0
  2  3  1  0
  3  4  1  0
  4  5  1  0
  5  6  1  0
  6  7  1  0
  7  8  1  0
  8  9  1  0
  9 10  2  0
 10 11  1  0
 11 12  1  0
  4 13  1  0
 13 14  1  0
 14 15  1  0
  2 16  1  0
 16 17  2  0
 17 18  1  0
 18 19  2  0
 19 20  1  0
 20 21  1  0
 21 22  1  0
 22 23  2  0
 23 24  1  0
 12  8  2  0
 15 13  1  0
 24 16  1  0
 24 20  2  0
  3 25  1  0
  4 26  1  0
  5 27  1  0
  5 28  1  0
  6 29  1  0
  7 30  1  0
  7 31  1  0
  9 32  1  0
 10 33  1  0
 13 34  1  0
 14 35  1  0
 14 36  1  0
 15 37  1  0
 15 38  1  0
 17 39  1  0
 18 40  1  0
 19 41  1  0
 21 42  1  0
 22 43  1  0
M  END
>  <Energy>  (622) 
1445.3478970614567

>  <compound_id>  (622) 
11605

>  <target_id>  (622) 
1

>  <reference_id>  (622) 
59

>  <inspiration_ids>  (622) 
[94, 59]

>  <energy_score>  (622) 
1318.5217923625478

>  <distance_score>  (622) 
8.054409038906092

>  <path>  (622) 
/opt/xchem-fragalysis-2/maxwin/BulkDock/SCRATCH/511014/C11605-P59/C11605-P59.minimised.mol

>  <scratch_subdir>  (622) 
/opt/xchem-fragalysis-2/maxwin/BulkDock/SCRATCH/511014/C11605-P59

>  <fragmenstein_runtime>  (622) 
27.95464563369751

>  <fragmenstein_outcome>  (622) 
too moved

>  <fragmenstein_mode>  (622) 
expansion

>  <fragmenstein_error>  (622) 


$$$$
C11607-P94
     RDKit          3D

 48 50  0  0  0  0  0  0  0  0999 V2000
  -10.9812   -6.4632   34.5096 C   0  0  0  0  0  0  0  0  0  0  0  0
   -9.6576   -7.3573   33.4752 C   0  0  0  0  0  0  0  0  0  0  0  0
  -10.0443   -9.3228   33.1966 C   0  0  0  0  0  0  0  0  0  0  0  0
   -9.0855  -11.0747   32.4054 C   0  0  0  0  0  0  0  0  0  0  0  0
   -9.3275  -12.9728   32.9740 N   0  0  0  0  0  0  0  0  0  0  0  0
   -8.5630  -14.3947   32.4692 C   0  0  0  0  0  0  0  0  0  0  0  0
   -7.6456  -14.5008   31.7094 O   0  0  0  0  0  0  0  0  0  0  0  0
   -9.6004  -15.7099   33.2938 C   0  0  0  0  0  0  0  0  0  0  0  0
   -9.3307  -16.9428   34.2748 C   0  0  0  0  0  0  0  0  0  0  0  0
  -10.5445  -17.5601   34.9571 N   0  0  0  0  0  0  0  0  0  0  0  0
  -10.8867  -17.3256   36.2707 C   0  0  0  0  0  0  0  0  0  0  0  0
  -12.1328  -17.6615   36.5243 N   0  0  0  0  0  0  0  0  0  0  0  0
  -12.4761  -18.4840   35.4874 C   0  0  0  0  0  0  0  0  0  0  0  0
  -13.6531  -19.2056   35.2419 C   0  0  0  0  0  0  0  0  0  0  0  0
  -13.6239  -20.2886   34.3447 C   0  0  0  0  0  0  0  0  0  0  0  0
  -12.4528  -20.6183   33.6818 C   0  0  0  0  0  0  0  0  0  0  0  0
  -11.3770  -19.7252   33.7248 C   0  0  0  0  0  0  0  0  0  0  0  0
  -11.3983  -18.6382   34.6300 C   0  0  0  0  0  0  0  0  0  0  0  0
   -8.1113   -6.6067   33.8063 N   0  0  0  0  0  0  0  0  0  0  0  0
   -7.1808   -5.3577   34.8472 C   0  0  0  0  0  0  0  0  0  0  0  0
   -6.2243   -3.5987   34.3993 C   0  0  0  0  0  0  0  0  0  0  0  0
   -5.5877   -3.0923   33.1560 C   0  0  0  0  0  0  0  0  0  0  0  0
   -5.2902   -1.7694   33.3307 C   0  0  0  0  0  0  0  0  0  0  0  0
   -5.9606   -1.3572   34.4120 O   0  0  0  0  0  0  0  0  0  0  0  0
   -6.7484   -2.3871   34.8535 N   0  0  0  0  0  0  0  0  0  0  0  0
  -10.4767   -5.8246   35.2035 H   0  0  0  0  0  0  0  0  0  0  0  0
  -11.7774   -5.7736   34.2954 H   0  0  0  0  0  0  0  0  0  0  0  0
  -11.6538   -7.0890   35.1085 H   0  0  0  0  0  0  0  0  0  0  0  0
   -9.8568   -7.0814   32.4693 H   0  0  0  0  0  0  0  0  0  0  0  0
  -10.1323   -9.4811   34.2780 H   0  0  0  0  0  0  0  0  0  0  0  0
  -11.0706   -9.5985   33.1862 H   0  0  0  0  0  0  0  0  0  0  0  0
   -9.2835  -10.8497   31.3770 H   0  0  0  0  0  0  0  0  0  0  0  0
   -8.0619  -11.1958   32.6306 H   0  0  0  0  0  0  0  0  0  0  0  0
   -9.9760  -13.1905   33.6485 H   0  0  0  0  0  0  0  0  0  0  0  0
  -10.3072  -15.8487   32.5229 H   0  0  0  0  0  0  0  0  0  0  0  0
  -10.3802  -15.1903   33.8714 H   0  0  0  0  0  0  0  0  0  0  0  0
   -8.7071  -16.5902   35.1061 H   0  0  0  0  0  0  0  0  0  0  0  0
   -8.7781  -17.7683   33.8342 H   0  0  0  0  0  0  0  0  0  0  0  0
  -10.2091  -16.8506   36.9634 H   0  0  0  0  0  0  0  0  0  0  0  0
  -14.5338  -19.0095   35.8441 H   0  0  0  0  0  0  0  0  0  0  0  0
  -14.5045  -20.9164   34.2218 H   0  0  0  0  0  0  0  0  0  0  0  0
  -12.4165  -21.4919   33.0342 H   0  0  0  0  0  0  0  0  0  0  0  0
  -10.5216  -19.8829   33.0778 H   0  0  0  0  0  0  0  0  0  0  0  0
   -7.4322   -7.0327   33.1921 H   0  0  0  0  0  0  0  0  0  0  0  0
   -8.0978   -5.0231   35.2814 H   0  0  0  0  0  0  0  0  0  0  0  0
   -6.7601   -5.4154   33.9215 H   0  0  0  0  0  0  0  0  0  0  0  0
   -5.3715   -3.5729   32.2335 H   0  0  0  0  0  0  0  0  0  0  0  0
   -4.7617   -1.0141   32.7723 H   0  0  0  0  0  0  0  0  0  0  0  0
  1  2  1  0
  2  3  1  0
  3  4  1  0
  4  5  1  0
  5  6  1  0
  6  7  2  0
  6  8  1  0
  8  9  1  0
  9 10  1  0
 10 11  1  0
 11 12  2  0
 12 13  1  0
 13 14  2  0
 14 15  1  0
 15 16  2  0
 16 17  1  0
 17 18  2  0
  2 19  1  0
 19 20  1  0
 20 21  1  0
 21 22  1  0
 22 23  2  0
 23 24  1  0
 24 25  1  0
 18 10  1  0
 25 21  2  0
 18 13  1  0
  1 26  1  0
  1 27  1  0
  1 28  1  0
  2 29  1  0
  3 30  1  0
  3 31  1  0
  4 32  1  0
  4 33  1  0
  5 34  1  0
  8 35  1  0
  8 36  1  0
  9 37  1  0
  9 38  1  0
 11 39  1  0
 14 40  1  0
 15 41  1  0
 16 42  1  0
 17 43  1  0
 19 44  1  0
 20 45  1  0
 20 46  1  0
 22 47  1  0
 23 48  1  0
M  END
>  <Energy>  (623) 
666.51561997265037

>  <compound_id>  (623) 
11607

>  <target_id>  (623) 
1

>  <reference_id>  (623) 
94

>  <inspiration_ids>  (623) 
[94, 59]

>  <energy_score>  (623) 
637.1254804642471

>  <distance_score>  (623) 
7.806612886332782

>  <path>  (623) 
/opt/xchem-fragalysis-2/maxwin/BulkDock/SCRATCH/511014/C11607-P94/C11607-P94.minimised.mol

>  <scratch_subdir>  (623) 
/opt/xchem-fragalysis-2/maxwin/BulkDock/SCRATCH/511014/C11607-P94

>  <fragmenstein_runtime>  (623) 
22.376694202423096

>  <fragmenstein_outcome>  (623) 
too moved

>  <fragmenstein_mode>  (623) 
expansion

>  <fragmenstein_error>  (623) 


$$$$
C11607-P59
     RDKit          3D

 48 50  0  0  0  0  0  0  0  0999 V2000
   -8.2169   -2.9293   36.0479 C   0  0  0  0  0  0  0  0  0  0  0  0
   -7.2407   -4.5587   35.4187 C   0  0  0  0  0  0  0  0  0  0  0  0
   -8.0064   -6.3985   34.6745 C   0  0  0  0  0  0  0  0  0  0  0  0
   -8.9354   -7.8893   33.4568 C   0  0  0  0  0  0  0  0  0  0  0  0
   -9.6756   -9.8681   33.1664 N   0  0  0  0  0  0  0  0  0  0  0  0
   -8.7354  -11.7418   32.9502 C   0  0  0  0  0  0  0  0  0  0  0  0
   -7.5162  -11.7121   32.8836 O   0  0  0  0  0  0  0  0  0  0  0  0
   -9.4188  -13.8782   33.0134 C   0  0  0  0  0  0  0  0  0  0  0  0
   -9.9059  -15.9820   33.5110 C   0  0  0  0  0  0  0  0  0  0  0  0
  -10.2779  -18.0148   33.3839 N   0  0  0  0  0  0  0  0  0  0  0  0
  -11.5998  -18.2676   33.9916 C   0  0  0  0  0  0  0  0  0  0  0  0
  -12.2983  -19.1712   33.0438 N   0  0  0  0  0  0  0  0  0  0  0  0
  -12.1043  -20.2989   31.5146 C   0  0  0  0  0  0  0  0  0  0  0  0
  -11.3781  -21.9191   31.2622 C   0  0  0  0  0  0  0  0  0  0  0  0
  -11.3118  -22.2308   29.9328 C   0  0  0  0  0  0  0  0  0  0  0  0
  -11.4775  -21.1423   29.3960 C   0  0  0  0  0  0  0  0  0  0  0  0
  -10.8856  -20.2731   30.4368 C   0  0  0  0  0  0  0  0  0  0  0  0
  -10.6403  -19.5212   32.1694 C   0  0  0  0  0  0  0  0  0  0  0  0
   -6.5452   -2.7753   35.1001 N   0  0  0  0  0  0  0  0  0  0  0  0
   -5.1908   -2.2112   35.3129 C   0  0  0  0  0  0  0  0  0  0  0  0
   -4.4712   -1.6799   34.0946 C   0  0  0  0  0  0  0  0  0  0  0  0
   -3.0876   -1.8281   33.7861 C   0  0  0  0  0  0  0  0  0  0  0  0
   -2.8953   -1.0962   32.6494 C   0  0  0  0  0  0  0  0  0  0  0  0
   -4.0577   -0.4969   32.3173 O   0  0  0  0  0  0  0  0  0  0  0  0
   -5.0504   -0.8471   33.2181 N   0  0  0  0  0  0  0  0  0  0  0  0
   -7.7542   -2.4232   36.9222 H   0  0  0  0  0  0  0  0  0  0  0  0
   -8.5006   -2.1632   35.2840 H   0  0  0  0  0  0  0  0  0  0  0  0
   -9.2857   -3.1571   36.3073 H   0  0  0  0  0  0  0  0  0  0  0  0
   -6.2720   -4.7084   35.0453 H   0  0  0  0  0  0  0  0  0  0  0  0
   -7.1255   -6.4940   34.0561 H   0  0  0  0  0  0  0  0  0  0  0  0
   -7.8425   -6.8659   35.6312 H   0  0  0  0  0  0  0  0  0  0  0  0
   -8.6757   -7.3019   32.5956 H   0  0  0  0  0  0  0  0  0  0  0  0
   -9.9415   -7.4484   33.5166 H   0  0  0  0  0  0  0  0  0  0  0  0
  -10.6573  -10.0128   33.2980 H   0  0  0  0  0  0  0  0  0  0  0  0
  -10.4342  -13.8244   32.9145 H   0  0  0  0  0  0  0  0  0  0  0  0
   -8.7395  -14.3309   32.2880 H   0  0  0  0  0  0  0  0  0  0  0  0
  -10.8961  -15.7852   33.9725 H   0  0  0  0  0  0  0  0  0  0  0  0
   -9.4196  -16.2671   34.4610 H   0  0  0  0  0  0  0  0  0  0  0  0
  -12.0204  -17.7181   34.8225 H   0  0  0  0  0  0  0  0  0  0  0  0
  -10.9742  -22.4733   32.0935 H   0  0  0  0  0  0  0  0  0  0  0  0
  -10.8040  -22.9000   29.2496 H   0  0  0  0  0  0  0  0  0  0  0  0
  -11.4603  -21.1535   28.3198 H   0  0  0  0  0  0  0  0  0  0  0  0
  -10.7560  -19.6836   29.5746 H   0  0  0  0  0  0  0  0  0  0  0  0
   -7.0219   -2.2506   34.3464 H   0  0  0  0  0  0  0  0  0  0  0  0
   -5.3394   -1.3442   35.9711 H   0  0  0  0  0  0  0  0  0  0  0  0
   -4.5112   -2.8387   35.8586 H   0  0  0  0  0  0  0  0  0  0  0  0
   -2.3455   -2.3950   34.3285 H   0  0  0  0  0  0  0  0  0  0  0  0
   -2.0520   -0.8885   32.0076 H   0  0  0  0  0  0  0  0  0  0  0  0
  1  2  1  0
  2  3  1  0
  3  4  1  0
  4  5  1  0
  5  6  1  0
  6  7  2  0
  6  8  1  0
  8  9  1  0
  9 10  1  0
 10 11  1  0
 11 12  2  0
 12 13  1  0
 13 14  2  0
 14 15  1  0
 15 16  2  0
 16 17  1  0
 17 18  2  0
  2 19  1  0
 19 20  1  0
 20 21  1  0
 21 22  1  0
 22 23  2  0
 23 24  1  0
 24 25  1  0
 18 10  1  0
 25 21  2  0
 18 13  1  0
  1 26  1  0
  1 27  1  0
  1 28  1  0
  2 29  1  0
  3 30  1  0
  3 31  1  0
  4 32  1  0
  4 33  1  0
  5 34  1  0
  8 35  1  0
  8 36  1  0
  9 37  1  0
  9 38  1  0
 11 39  1  0
 14 40  1  0
 15 41  1  0
 16 42  1  0
 17 43  1  0
 19 44  1  0
 20 45  1  0
 20 46  1  0
 22 47  1  0
 23 48  1  0
M  END
>  <Energy>  (624) 
2252.8987904683686

>  <compound_id>  (624) 
11607

>  <target_id>  (624) 
1

>  <reference_id>  (624) 
59

>  <inspiration_ids>  (624) 
[94, 59]

>  <energy_score>  (624) 
2223.508650960006

>  <distance_score>  (624) 
5.592746984303187

>  <path>  (624) 
/opt/xchem-fragalysis-2/maxwin/BulkDock/SCRATCH/511014/C11607-P59/C11607-P59.minimised.mol

>  <scratch_subdir>  (624) 
/opt/xchem-fragalysis-2/maxwin/BulkDock/SCRATCH/511014/C11607-P59

>  <fragmenstein_runtime>  (624) 
41.10663318634033

>  <fragmenstein_outcome>  (624) 
too moved

>  <fragmenstein_mode>  (624) 
expansion

>  <fragmenstein_error>  (624) 


$$$$
C11609-P94
     RDKit          3D

 31 33  0  0  0  0  0  0  0  0999 V2000
   -5.1439  -16.2986   29.0793 C   0  0  0  0  0  0  0  0  0  0  0  0
   -6.3843  -15.9767   29.4086 N   0  0  0  0  0  0  0  0  0  0  0  0
   -5.6888  -14.3227   29.5508 C   0  0  0  0  0  0  0  0  0  0  0  0
   -4.5996  -12.8842   29.9100 C   0  0  0  0  0  0  0  0  0  0  0  0
   -3.3187  -12.5694   29.5124 C   0  0  0  0  0  0  0  0  0  0  0  0
   -2.6658  -11.4854   30.0512 C   0  0  0  0  0  0  0  0  0  0  0  0
   -3.3967  -10.9503   31.0219 N   0  0  0  0  0  0  0  0  0  0  0  0
   -4.8600  -11.8523   30.8081 O   0  0  0  0  0  0  0  0  0  0  0  0
   -7.7031  -16.6794   28.1310 C   0  0  0  0  0  0  0  0  0  0  0  0
   -8.0764  -16.0149   27.1838 O   0  0  0  0  0  0  0  0  0  0  0  0
   -8.7674  -18.2983   28.2189 C   0  0  0  0  0  0  0  0  0  0  0  0
   -8.8872  -19.6618   28.2432 N   0  0  0  0  0  0  0  0  0  0  0  0
  -10.1251  -21.0420   28.5493 C   0  0  0  0  0  0  0  0  0  0  0  0
  -10.5175  -22.3989   28.3074 C   0  0  0  0  0  0  0  0  0  0  0  0
  -11.4560  -23.0125   29.1482 C   0  0  0  0  0  0  0  0  0  0  0  0
  -11.8030  -22.3899   30.3239 C   0  0  0  0  0  0  0  0  0  0  0  0
  -11.3784  -21.0827   30.5631 C   0  0  0  0  0  0  0  0  0  0  0  0
  -10.7315  -20.3091   29.5081 C   0  0  0  0  0  0  0  0  0  0  0  0
  -10.5956  -18.4255   28.9425 N   0  0  0  0  0  0  0  0  0  0  0  0
   -5.4602  -17.3274   29.1893 H   0  0  0  0  0  0  0  0  0  0  0  0
   -4.1988  -16.4079   28.4326 H   0  0  0  0  0  0  0  0  0  0  0  0
   -4.5917  -16.0850   29.9564 H   0  0  0  0  0  0  0  0  0  0  0  0
   -6.4935  -13.8491   28.9438 H   0  0  0  0  0  0  0  0  0  0  0  0
   -6.1681  -14.1857   30.5286 H   0  0  0  0  0  0  0  0  0  0  0  0
   -2.7080  -13.4012   29.3181 H   0  0  0  0  0  0  0  0  0  0  0  0
   -1.6645  -11.0876   29.9715 H   0  0  0  0  0  0  0  0  0  0  0  0
  -10.0887  -23.0937   27.5987 H   0  0  0  0  0  0  0  0  0  0  0  0
  -11.7624  -24.0393   28.9681 H   0  0  0  0  0  0  0  0  0  0  0  0
  -12.3678  -22.9279   31.0832 H   0  0  0  0  0  0  0  0  0  0  0  0
  -11.5476  -20.7069   31.5682 H   0  0  0  0  0  0  0  0  0  0  0  0
  -11.3272  -18.1763   28.3067 H   0  0  0  0  0  0  0  0  0  0  0  0
  1  2  1  0
  2  3  1  0
  3  4  1  0
  4  5  2  0
  5  6  1  0
  6  7  2  0
  7  8  1  0
  2  9  1  0
  9 10  2  0
  9 11  1  0
 11 12  2  0
 12 13  1  0
 13 14  2  0
 14 15  1  0
 15 16  2  0
 16 17  1  0
 17 18  2  0
 18 19  1  0
  8  4  1  0
 19 11  1  0
 18 13  1  0
  1 20  1  0
  1 21  1  0
  1 22  1  0
  3 23  1  0
  3 24  1  0
  5 25  1  0
  6 26  1  0
 14 27  1  0
 15 28  1  0
 16 29  1  0
 17 30  1  0
 19 31  1  0
M  END
>  <Energy>  (625) 
820.63713125053141

>  <compound_id>  (625) 
11609

>  <target_id>  (625) 
1

>  <reference_id>  (625) 
94

>  <inspiration_ids>  (625) 
[94, 59]

>  <energy_score>  (625) 
780.3781371634642

>  <distance_score>  (625) 
8.798487989617735

>  <path>  (625) 
/opt/xchem-fragalysis-2/maxwin/BulkDock/SCRATCH/511014/C11609-P94/C11609-P94.minimised.mol

>  <scratch_subdir>  (625) 
/opt/xchem-fragalysis-2/maxwin/BulkDock/SCRATCH/511014/C11609-P94

>  <fragmenstein_runtime>  (625) 
12.138895750045776

>  <fragmenstein_outcome>  (625) 
too moved

>  <fragmenstein_mode>  (625) 
expansion

>  <fragmenstein_error>  (625) 


$$$$
C11609-P59
     RDKit          3D

 31 33  0  0  0  0  0  0  0  0999 V2000
   -9.5228  -15.3812   32.8175 C   0  0  0  0  0  0  0  0  0  0  0  0
  -10.7715  -14.8860   32.6113 N   0  0  0  0  0  0  0  0  0  0  0  0
   -9.6722  -13.3522   33.0300 C   0  0  0  0  0  0  0  0  0  0  0  0
   -8.3404  -11.9832   33.7683 C   0  0  0  0  0  0  0  0  0  0  0  0
   -8.3617  -11.2351   35.1310 C   0  0  0  0  0  0  0  0  0  0  0  0
   -7.1328  -10.5727   35.5214 C   0  0  0  0  0  0  0  0  0  0  0  0
   -6.2205  -10.4128   34.4408 N   0  0  0  0  0  0  0  0  0  0  0  0
   -7.0311  -11.5448   33.2236 O   0  0  0  0  0  0  0  0  0  0  0  0
  -11.6265  -15.4048   30.9836 C   0  0  0  0  0  0  0  0  0  0  0  0
  -11.3855  -14.6078   30.1341 O   0  0  0  0  0  0  0  0  0  0  0  0
  -12.5559  -16.8644   30.1921 C   0  0  0  0  0  0  0  0  0  0  0  0
  -12.6757  -18.4537   29.4988 N   0  0  0  0  0  0  0  0  0  0  0  0
  -12.7330  -20.2126   29.8985 C   0  0  0  0  0  0  0  0  0  0  0  0
  -11.6766  -21.1961   30.0092 C   0  0  0  0  0  0  0  0  0  0  0  0
  -11.2739  -22.1281   29.0176 C   0  0  0  0  0  0  0  0  0  0  0  0
  -11.8297  -22.2028   27.8206 C   0  0  0  0  0  0  0  0  0  0  0  0
  -12.4181  -21.0300   27.5912 C   0  0  0  0  0  0  0  0  0  0  0  0
  -12.6998  -19.8324   28.6981 C   0  0  0  0  0  0  0  0  0  0  0  0
  -12.2713  -17.9589   28.7935 N   0  0  0  0  0  0  0  0  0  0  0  0
   -8.6100  -15.1959   32.2497 H   0  0  0  0  0  0  0  0  0  0  0  0
   -9.5948  -16.4324   33.0381 H   0  0  0  0  0  0  0  0  0  0  0  0
   -9.5310  -15.2728   33.8509 H   0  0  0  0  0  0  0  0  0  0  0  0
   -8.6603  -13.7191   32.7350 H   0  0  0  0  0  0  0  0  0  0  0  0
  -10.0082  -12.6592   32.3461 H   0  0  0  0  0  0  0  0  0  0  0  0
   -9.1813  -11.2183   35.8080 H   0  0  0  0  0  0  0  0  0  0  0  0
   -6.9001  -10.0798   36.4530 H   0  0  0  0  0  0  0  0  0  0  0  0
  -11.2188  -21.3161   30.9671 H   0  0  0  0  0  0  0  0  0  0  0  0
  -10.5120  -22.8599   29.1410 H   0  0  0  0  0  0  0  0  0  0  0  0
  -11.6089  -22.9480   27.0763 H   0  0  0  0  0  0  0  0  0  0  0  0
  -12.4509  -20.8444   26.5167 H   0  0  0  0  0  0  0  0  0  0  0  0
  -11.7681  -17.5163   28.0753 H   0  0  0  0  0  0  0  0  0  0  0  0
  1  2  1  0
  2  3  1  0
  3  4  1  0
  4  5  2  0
  5  6  1  0
  6  7  2  0
  7  8  1  0
  2  9  1  0
  9 10  2  0
  9 11  1  0
 11 12  2  0
 12 13  1  0
 13 14  2  0
 14 15  1  0
 15 16  2  0
 16 17  1  0
 17 18  2  0
 18 19  1  0
  8  4  1  0
 19 11  1  0
 18 13  1  0
  1 20  1  0
  1 21  1  0
  1 22  1  0
  3 23  1  0
  3 24  1  0
  5 25  1  0
  6 26  1  0
 14 27  1  0
 15 28  1  0
 16 29  1  0
 17 30  1  0
 19 31  1  0
M  END
>  <Energy>  (626) 
1238.7222358794895

>  <compound_id>  (626) 
11609

>  <target_id>  (626) 
1

>  <reference_id>  (626) 
59

>  <inspiration_ids>  (626) 
[94, 59]

>  <energy_score>  (626) 
1198.4632417924317

>  <distance_score>  (626) 
9.677810691859001

>  <path>  (626) 
/opt/xchem-fragalysis-2/maxwin/BulkDock/SCRATCH/511014/C11609-P59/C11609-P59.minimised.mol

>  <scratch_subdir>  (626) 
/opt/xchem-fragalysis-2/maxwin/BulkDock/SCRATCH/511014/C11609-P59

>  <fragmenstein_runtime>  (626) 
15.774447679519653

>  <fragmenstein_outcome>  (626) 
too moved

>  <fragmenstein_mode>  (626) 
expansion

>  <fragmenstein_error>  (626) 


$$$$
C11610-P94
     RDKit          3D

 25 27  0  0  0  0  0  0  0  0999 V2000
   -8.0359  -11.7037   32.5375 O   0  0  0  0  0  0  0  0  0  0  0  0
   -7.0874  -12.3536   32.0605 C   0  0  0  0  0  0  0  0  0  0  0  0
   -5.5341  -11.6251   31.7214 N   0  0  0  0  0  0  0  0  0  0  0  0
   -4.9169  -10.0940   32.0570 C   0  0  0  0  0  0  0  0  0  0  0  0
   -4.7690   -9.3380   33.2602 C   0  0  0  0  0  0  0  0  0  0  0  0
   -3.4448   -8.8089   33.4168 C   0  0  0  0  0  0  0  0  0  0  0  0
   -2.7665   -8.9286   32.3026 N   0  0  0  0  0  0  0  0  0  0  0  0
   -3.4276   -9.9422   31.6646 O   0  0  0  0  0  0  0  0  0  0  0  0
   -7.5814  -14.2895   31.9897 C   0  0  0  0  0  0  0  0  0  0  0  0
   -7.1109  -15.5552   32.8530 N   0  0  0  0  0  0  0  0  0  0  0  0
   -7.9367  -16.3426   33.5664 C   0  0  0  0  0  0  0  0  0  0  0  0
   -7.6671  -17.1386   34.6713 C   0  0  0  0  0  0  0  0  0  0  0  0
   -8.7149  -17.3566   35.5586 C   0  0  0  0  0  0  0  0  0  0  0  0
  -10.0270  -17.0620   35.2156 C   0  0  0  0  0  0  0  0  0  0  0  0
  -11.4983  -17.6053   36.2995 Br  0  0  0  0  0  0  0  0  0  0  0  0
  -10.2533  -16.2167   34.1434 C   0  0  0  0  0  0  0  0  0  0  0  0
   -9.1884  -15.9389   33.2508 C   0  0  0  0  0  0  0  0  0  0  0  0
   -8.9665  -14.7271   32.4330 N   0  0  0  0  0  0  0  0  0  0  0  0
   -4.9518  -12.3138   31.2598 H   0  0  0  0  0  0  0  0  0  0  0  0
   -5.3439   -9.4682   34.1367 H   0  0  0  0  0  0  0  0  0  0  0  0
   -2.9906   -8.3430   34.2824 H   0  0  0  0  0  0  0  0  0  0  0  0
   -6.6645  -17.3910   34.9600 H   0  0  0  0  0  0  0  0  0  0  0  0
   -8.4714  -17.7965   36.5167 H   0  0  0  0  0  0  0  0  0  0  0  0
  -11.2199  -15.7459   34.0028 H   0  0  0  0  0  0  0  0  0  0  0  0
   -9.3838  -13.9657   32.9178 H   0  0  0  0  0  0  0  0  0  0  0  0
  1  2  2  0
  2  3  1  0
  3  4  1  0
  4  5  2  0
  5  6  1  0
  6  7  2  0
  7  8  1  0
  2  9  1  0
  9 10  2  0
 10 11  1  0
 11 12  2  0
 12 13  1  0
 13 14  2  0
 14 15  1  0
 14 16  1  0
 16 17  2  0
 17 18  1  0
  8  4  1  0
 18  9  1  0
 17 11  1  0
  3 19  1  0
  5 20  1  0
  6 21  1  0
 12 22  1  0
 13 23  1  0
 16 24  1  0
 18 25  1  0
M  END
>  <Energy>  (627) 
323.55663410257864

>  <compound_id>  (627) 
11610

>  <target_id>  (627) 
1

>  <reference_id>  (627) 
94

>  <inspiration_ids>  (627) 
[94, 59]

>  <energy_score>  (627) 
285.75813278919566

>  <distance_score>  (627) 
9.746505743924711

>  <path>  (627) 
/opt/xchem-fragalysis-2/maxwin/BulkDock/SCRATCH/511014/C11610-P94/C11610-P94.minimised.mol

>  <scratch_subdir>  (627) 
/opt/xchem-fragalysis-2/maxwin/BulkDock/SCRATCH/511014/C11610-P94

>  <fragmenstein_runtime>  (627) 
7.67575740814209

>  <fragmenstein_outcome>  (627) 
too moved

>  <fragmenstein_mode>  (627) 
expansion

>  <fragmenstein_error>  (627) 


$$$$
C11610-P59
     RDKit          3D

 25 27  0  0  0  0  0  0  0  0999 V2000
   -6.9008  -13.5293   31.0932 O   0  0  0  0  0  0  0  0  0  0  0  0
   -6.8257  -14.6212   31.5295 C   0  0  0  0  0  0  0  0  0  0  0  0
   -5.6426  -15.6214   31.5162 N   0  0  0  0  0  0  0  0  0  0  0  0
   -4.1548  -15.4613   31.0159 C   0  0  0  0  0  0  0  0  0  0  0  0
   -3.1194  -14.7605   30.3167 C   0  0  0  0  0  0  0  0  0  0  0  0
   -1.8666  -15.3315   30.5251 C   0  0  0  0  0  0  0  0  0  0  0  0
   -2.0061  -16.3843   31.2906 N   0  0  0  0  0  0  0  0  0  0  0  0
   -3.3470  -16.4823   31.5339 O   0  0  0  0  0  0  0  0  0  0  0  0
   -8.3546  -15.4654   32.3258 C   0  0  0  0  0  0  0  0  0  0  0  0
   -7.9209  -16.9251   32.8136 N   0  0  0  0  0  0  0  0  0  0  0  0
   -8.8395  -17.5458   33.9595 C   0  0  0  0  0  0  0  0  0  0  0  0
   -8.7816  -18.8329   34.6788 C   0  0  0  0  0  0  0  0  0  0  0  0
   -9.4573  -19.7848   34.0049 C   0  0  0  0  0  0  0  0  0  0  0  0
  -10.3796  -19.3165   33.0379 C   0  0  0  0  0  0  0  0  0  0  0  0
  -11.1623  -20.6259   30.9705 Br  0  0  0  0  0  0  0  0  0  0  0  0
  -10.9277  -18.0952   33.9193 C   0  0  0  0  0  0  0  0  0  0  0  0
  -10.0118  -16.8580   34.0536 C   0  0  0  0  0  0  0  0  0  0  0  0
   -9.7672  -15.5130   33.1523 N   0  0  0  0  0  0  0  0  0  0  0  0
   -5.8896  -16.4369   32.0520 H   0  0  0  0  0  0  0  0  0  0  0  0
   -3.1413  -13.8136   29.8092 H   0  0  0  0  0  0  0  0  0  0  0  0
   -0.8888  -15.0270   30.1825 H   0  0  0  0  0  0  0  0  0  0  0  0
   -7.9081  -19.2958   35.1523 H   0  0  0  0  0  0  0  0  0  0  0  0
   -8.8917  -20.7083   34.0434 H   0  0  0  0  0  0  0  0  0  0  0  0
  -11.3315  -18.3112   34.9276 H   0  0  0  0  0  0  0  0  0  0  0  0
  -10.2391  -14.6628   33.3946 H   0  0  0  0  0  0  0  0  0  0  0  0
  1  2  2  0
  2  3  1  0
  3  4  1  0
  4  5  2  0
  5  6  1  0
  6  7  2  0
  7  8  1  0
  2  9  1  0
  9 10  2  0
 10 11  1  0
 11 12  2  0
 12 13  1  0
 13 14  2  0
 14 15  1  0
 14 16  1  0
 16 17  2  0
 17 18  1  0
  8  4  1  0
 18  9  1  0
 17 11  1  0
  3 19  1  0
  5 20  1  0
  6 21  1  0
 12 22  1  0
 13 23  1  0
 16 24  1  0
 18 25  1  0
M  END
>  <Energy>  (628) 
494.73561132647728

>  <compound_id>  (628) 
11610

>  <target_id>  (628) 
1

>  <reference_id>  (628) 
59

>  <inspiration_ids>  (628) 
[94, 59]

>  <energy_score>  (628) 
456.9371100130802

>  <distance_score>  (628) 
11.603683436248362

>  <path>  (628) 
/opt/xchem-fragalysis-2/maxwin/BulkDock/SCRATCH/511014/C11610-P59/C11610-P59.minimised.mol

>  <scratch_subdir>  (628) 
/opt/xchem-fragalysis-2/maxwin/BulkDock/SCRATCH/511014/C11610-P59

>  <fragmenstein_runtime>  (628) 
10.018826723098755

>  <fragmenstein_outcome>  (628) 
too moved

>  <fragmenstein_mode>  (628) 
expansion

>  <fragmenstein_error>  (628) 


$$$$
C11611-P94
     RDKit          3D

 42 45  0  0  0  0  0  0  0  0999 V2000
   -4.8288  -12.3361   30.1348 C   0  0  0  0  0  0  0  0  0  0  0  0
   -5.6319  -12.0415   31.4177 C   0  0  0  0  0  0  0  0  0  0  0  0
   -5.1239  -10.3201   32.1497 C   0  0  0  0  0  0  0  0  0  0  0  0
   -3.7856   -9.4570   32.5077 C   0  0  0  0  0  0  0  0  0  0  0  0
   -2.4993   -9.2158   32.0822 C   0  0  0  0  0  0  0  0  0  0  0  0
   -1.8939   -8.4073   33.0653 C   0  0  0  0  0  0  0  0  0  0  0  0
   -2.6865   -8.2547   34.1186 N   0  0  0  0  0  0  0  0  0  0  0  0
   -3.8677   -8.8941   33.7767 O   0  0  0  0  0  0  0  0  0  0  0  0
   -6.7721  -13.5823   31.3639 N   0  0  0  0  0  0  0  0  0  0  0  0
   -7.8259  -14.5505   32.5720 C   0  0  0  0  0  0  0  0  0  0  0  0
   -7.6107  -16.0300   33.7626 C   0  0  0  0  0  0  0  0  0  0  0  0
   -8.4320  -17.0963   33.6008 N   0  0  0  0  0  0  0  0  0  0  0  0
   -9.4360  -17.1213   34.5927 C   0  0  0  0  0  0  0  0  0  0  0  0
  -10.6527  -17.8360   34.7996 C   0  0  0  0  0  0  0  0  0  0  0  0
  -11.4643  -17.6721   35.9223 C   0  0  0  0  0  0  0  0  0  0  0  0
  -11.0367  -16.8353   36.9268 C   0  0  0  0  0  0  0  0  0  0  0  0
   -9.8032  -16.1886   36.8198 C   0  0  0  0  0  0  0  0  0  0  0  0
   -9.0448  -16.3480   35.6409 C   0  0  0  0  0  0  0  0  0  0  0  0
   -7.7404  -16.0220   35.2739 N   0  0  0  0  0  0  0  0  0  0  0  0
   -6.7420  -16.4076   36.3433 C   0  0  0  0  0  0  0  0  0  0  0  0
   -6.4429  -17.8813   36.6258 C   0  0  0  0  0  0  0  0  0  0  0  0
   -7.0350  -17.0486   37.7014 C   0  0  0  0  0  0  0  0  0  0  0  0
   -5.3056  -12.0530   29.2191 H   0  0  0  0  0  0  0  0  0  0  0  0
   -4.7764  -13.3966   30.0041 H   0  0  0  0  0  0  0  0  0  0  0  0
   -3.7937  -12.0026   30.1107 H   0  0  0  0  0  0  0  0  0  0  0  0
   -6.6001  -11.6391   31.5687 H   0  0  0  0  0  0  0  0  0  0  0  0
   -5.5544   -9.5692   31.5001 H   0  0  0  0  0  0  0  0  0  0  0  0
   -5.6174  -10.2242   33.0979 H   0  0  0  0  0  0  0  0  0  0  0  0
   -1.9888   -9.6678   31.2549 H   0  0  0  0  0  0  0  0  0  0  0  0
   -0.8930   -8.0000   33.1025 H   0  0  0  0  0  0  0  0  0  0  0  0
   -6.3414  -14.2566   30.7309 H   0  0  0  0  0  0  0  0  0  0  0  0
   -8.3374  -15.0878   31.8575 H   0  0  0  0  0  0  0  0  0  0  0  0
   -8.8306  -14.1232   32.6351 H   0  0  0  0  0  0  0  0  0  0  0  0
  -10.9384  -18.6343   34.1185 H   0  0  0  0  0  0  0  0  0  0  0  0
  -12.3800  -18.2459   36.0189 H   0  0  0  0  0  0  0  0  0  0  0  0
  -11.6325  -16.7181   37.8278 H   0  0  0  0  0  0  0  0  0  0  0  0
   -9.4319  -15.5807   37.6393 H   0  0  0  0  0  0  0  0  0  0  0  0
   -6.0161  -15.6166   36.4870 H   0  0  0  0  0  0  0  0  0  0  0  0
   -5.4380  -18.2294   36.8156 H   0  0  0  0  0  0  0  0  0  0  0  0
   -7.0521  -18.6162   36.1146 H   0  0  0  0  0  0  0  0  0  0  0  0
   -8.0120  -17.3596   38.0348 H   0  0  0  0  0  0  0  0  0  0  0  0
   -6.3900  -16.7705   38.5301 H   0  0  0  0  0  0  0  0  0  0  0  0
  1  2  1  0
  2  3  1  0
  3  4  1  0
  4  5  2  0
  5  6  1  0
  6  7  2  0
  7  8  1  0
  2  9  1  0
  9 10  1  0
 10 11  1  0
 11 12  2  0
 12 13  1  0
 13 14  2  0
 14 15  1  0
 15 16  2  0
 16 17  1  0
 17 18  2  0
 18 19  1  0
 19 20  1  0
 20 21  1  0
 21 22  1  0
  8  4  1  0
 19 11  1  0
 22 20  1  0
 18 13  1  0
  1 23  1  0
  1 24  1  0
  1 25  1  0
  2 26  1  0
  3 27  1  0
  3 28  1  0
  5 29  1  0
  6 30  1  0
  9 31  1  0
 10 32  1  0
 10 33  1  0
 14 34  1  0
 15 35  1  0
 16 36  1  0
 17 37  1  0
 20 38  1  0
 21 39  1  0
 21 40  1  0
 22 41  1  0
 22 42  1  0
M  END
>  <Energy>  (629) 
450.73197669009579

>  <compound_id>  (629) 
11611

>  <target_id>  (629) 
1

>  <reference_id>  (629) 
94

>  <inspiration_ids>  (629) 
[94, 59]

>  <energy_score>  (629) 
361.9334750956705

>  <distance_score>  (629) 
9.323014497311414

>  <path>  (629) 
/opt/xchem-fragalysis-2/maxwin/BulkDock/SCRATCH/511014/C11611-P94/C11611-P94.minimised.mol

>  <scratch_subdir>  (629) 
/opt/xchem-fragalysis-2/maxwin/BulkDock/SCRATCH/511014/C11611-P94

>  <fragmenstein_runtime>  (629) 
14.471043109893799

>  <fragmenstein_outcome>  (629) 
too moved

>  <fragmenstein_mode>  (629) 
expansion

>  <fragmenstein_error>  (629) 


$$$$
C11611-P59
     RDKit          3D

 42 45  0  0  0  0  0  0  0  0999 V2000
   -6.9392  -13.8855   31.5218 C   0  0  0  0  0  0  0  0  0  0  0  0
   -7.7709  -13.1983   32.7379 C   0  0  0  0  0  0  0  0  0  0  0  0
   -7.3200  -11.6171   33.0649 C   0  0  0  0  0  0  0  0  0  0  0  0
   -6.1159  -10.5156   34.1641 C   0  0  0  0  0  0  0  0  0  0  0  0
   -5.3002   -9.3458   34.2425 C   0  0  0  0  0  0  0  0  0  0  0  0
   -5.0717   -8.9506   35.5605 C   0  0  0  0  0  0  0  0  0  0  0  0
   -5.9359   -9.5420   36.3540 N   0  0  0  0  0  0  0  0  0  0  0  0
   -6.6866  -10.3752   35.5532 O   0  0  0  0  0  0  0  0  0  0  0  0
   -9.2418  -14.3808   32.9269 N   0  0  0  0  0  0  0  0  0  0  0  0
   -9.7705  -15.8959   33.9028 C   0  0  0  0  0  0  0  0  0  0  0  0
   -9.6619  -17.6994   34.0259 C   0  0  0  0  0  0  0  0  0  0  0  0
   -8.9064  -18.8779   34.1818 N   0  0  0  0  0  0  0  0  0  0  0  0
   -9.7689  -20.0684   33.5811 C   0  0  0  0  0  0  0  0  0  0  0  0
   -9.9057  -21.4967   32.4198 C   0  0  0  0  0  0  0  0  0  0  0  0
  -11.0802  -21.9871   31.4440 C   0  0  0  0  0  0  0  0  0  0  0  0
  -11.2530  -21.2806   30.3679 C   0  0  0  0  0  0  0  0  0  0  0  0
  -11.2191  -20.2648   31.2178 C   0  0  0  0  0  0  0  0  0  0  0  0
  -10.6162  -19.3500   32.7392 C   0  0  0  0  0  0  0  0  0  0  0  0
  -10.8590  -18.3283   33.9057 N   0  0  0  0  0  0  0  0  0  0  0  0
  -12.0739  -17.9846   34.8059 C   0  0  0  0  0  0  0  0  0  0  0  0
  -11.8690  -17.4522   36.2116 C   0  0  0  0  0  0  0  0  0  0  0  0
  -12.4811  -18.7934   36.0292 C   0  0  0  0  0  0  0  0  0  0  0  0
   -6.2278  -14.7045   31.6997 H   0  0  0  0  0  0  0  0  0  0  0  0
   -7.7703  -14.3012   31.0284 H   0  0  0  0  0  0  0  0  0  0  0  0
   -6.4620  -13.4070   30.7026 H   0  0  0  0  0  0  0  0  0  0  0  0
   -7.4448  -13.2061   33.6874 H   0  0  0  0  0  0  0  0  0  0  0  0
   -8.0321  -11.5061   33.8878 H   0  0  0  0  0  0  0  0  0  0  0  0
   -8.0049  -11.2185   32.3197 H   0  0  0  0  0  0  0  0  0  0  0  0
   -4.9099   -8.8317   33.3971 H   0  0  0  0  0  0  0  0  0  0  0  0
   -4.4037   -8.2074   35.9687 H   0  0  0  0  0  0  0  0  0  0  0  0
   -9.8486  -13.7324   33.4186 H   0  0  0  0  0  0  0  0  0  0  0  0
   -9.2417  -15.8759   34.8309 H   0  0  0  0  0  0  0  0  0  0  0  0
  -10.8167  -15.6378   34.0922 H   0  0  0  0  0  0  0  0  0  0  0  0
   -9.4493  -22.5084   32.6298 H   0  0  0  0  0  0  0  0  0  0  0  0
  -11.2064  -23.0774   31.4939 H   0  0  0  0  0  0  0  0  0  0  0  0
  -11.9052  -21.5055   29.5427 H   0  0  0  0  0  0  0  0  0  0  0  0
  -12.3538  -20.3328   31.3350 H   0  0  0  0  0  0  0  0  0  0  0  0
  -12.8757  -17.4997   34.2639 H   0  0  0  0  0  0  0  0  0  0  0  0
  -10.8668  -17.4261   36.6271 H   0  0  0  0  0  0  0  0  0  0  0  0
  -12.4985  -16.6346   36.5410 H   0  0  0  0  0  0  0  0  0  0  0  0
  -11.8793  -19.6398   36.3410 H   0  0  0  0  0  0  0  0  0  0  0  0
  -13.5389  -18.9025   36.2355 H   0  0  0  0  0  0  0  0  0  0  0  0
  1  2  1  0
  2  3  1  0
  3  4  1  0
  4  5  2  0
  5  6  1  0
  6  7  2  0
  7  8  1  0
  2  9  1  0
  9 10  1  0
 10 11  1  0
 11 12  2  0
 12 13  1  0
 13 14  2  0
 14 15  1  0
 15 16  2  0
 16 17  1  0
 17 18  2  0
 18 19  1  0
 19 20  1  0
 20 21  1  0
 21 22  1  0
  8  4  1  0
 19 11  1  0
 22 20  1  0
 18 13  1  0
  1 23  1  0
  1 24  1  0
  1 25  1  0
  2 26  1  0
  3 27  1  0
  3 28  1  0
  5 29  1  0
  6 30  1  0
  9 31  1  0
 10 32  1  0
 10 33  1  0
 14 34  1  0
 15 35  1  0
 16 36  1  0
 17 37  1  0
 20 38  1  0
 21 39  1  0
 21 40  1  0
 22 41  1  0
 22 42  1  0
M  END
>  <Energy>  (630) 
836.88533878516887

>  <compound_id>  (630) 
11611

>  <target_id>  (630) 
1

>  <reference_id>  (630) 
59

>  <inspiration_ids>  (630) 
[94, 59]

>  <energy_score>  (630) 
748.0868371907418

>  <distance_score>  (630) 
8.283121430412606

>  <path>  (630) 
/opt/xchem-fragalysis-2/maxwin/BulkDock/SCRATCH/511014/C11611-P59/C11611-P59.minimised.mol

>  <scratch_subdir>  (630) 
/opt/xchem-fragalysis-2/maxwin/BulkDock/SCRATCH/511014/C11611-P59

>  <fragmenstein_runtime>  (630) 
31.374529123306274

>  <fragmenstein_outcome>  (630) 
too moved

>  <fragmenstein_mode>  (630) 
expansion

>  <fragmenstein_error>  (630) 


$$$$
C11612-P94
     RDKit          3D

 35 38  0  0  0  0  0  0  0  0999 V2000
  -13.8846  -21.8036   32.1089 C   0  0  0  0  0  0  0  0  0  0  0  0
  -12.9787  -22.0535   31.0770 C   0  0  0  0  0  0  0  0  0  0  0  0
  -11.6249  -22.1681   31.2971 C   0  0  0  0  0  0  0  0  0  0  0  0
  -11.1524  -22.2002   32.5987 C   0  0  0  0  0  0  0  0  0  0  0  0
  -10.0702  -23.1187   32.8353 N   0  0  0  0  0  0  0  0  0  0  0  0
   -8.5989  -23.0257   33.0866 C   0  0  0  0  0  0  0  0  0  0  0  0
   -7.6596  -21.3170   33.2672 S   0  0  0  0  0  0  0  0  0  0  0  0
   -6.0260  -20.1737   33.0708 C   0  0  0  0  0  0  0  0  0  0  0  0
   -6.4163  -18.7160   33.6143 C   0  0  0  0  0  0  0  0  0  0  0  0
   -6.9739  -18.2171   34.7830 C   0  0  0  0  0  0  0  0  0  0  0  0
   -7.1630  -16.8466   34.5772 C   0  0  0  0  0  0  0  0  0  0  0  0
   -6.6681  -16.4804   33.4067 N   0  0  0  0  0  0  0  0  0  0  0  0
   -6.2377  -17.6377   32.7847 O   0  0  0  0  0  0  0  0  0  0  0  0
   -8.0844  -24.1252   32.5901 N   0  0  0  0  0  0  0  0  0  0  0  0
   -9.1095  -24.9217   32.2223 C   0  0  0  0  0  0  0  0  0  0  0  0
   -9.0802  -26.1276   31.5870 C   0  0  0  0  0  0  0  0  0  0  0  0
  -10.2157  -26.8249   31.2688 C   0  0  0  0  0  0  0  0  0  0  0  0
  -11.4002  -26.3512   31.7323 C   0  0  0  0  0  0  0  0  0  0  0  0
  -11.5088  -25.1231   32.3621 C   0  0  0  0  0  0  0  0  0  0  0  0
  -10.3290  -24.4212   32.5299 C   0  0  0  0  0  0  0  0  0  0  0  0
  -12.0764  -21.9943   33.6391 C   0  0  0  0  0  0  0  0  0  0  0  0
  -13.4233  -21.7369   33.4015 C   0  0  0  0  0  0  0  0  0  0  0  0
  -14.9485  -21.7339   31.8986 H   0  0  0  0  0  0  0  0  0  0  0  0
  -13.3094  -22.2213   30.0675 H   0  0  0  0  0  0  0  0  0  0  0  0
  -11.0305  -22.4510   30.4428 H   0  0  0  0  0  0  0  0  0  0  0  0
   -5.1255  -20.5282   33.5730 H   0  0  0  0  0  0  0  0  0  0  0  0
   -5.6705  -20.1489   32.0425 H   0  0  0  0  0  0  0  0  0  0  0  0
   -7.2135  -18.7646   35.6758 H   0  0  0  0  0  0  0  0  0  0  0  0
   -7.5880  -16.1111   35.2397 H   0  0  0  0  0  0  0  0  0  0  0  0
   -8.1488  -26.6404   31.6481 H   0  0  0  0  0  0  0  0  0  0  0  0
  -10.1368  -27.8340   30.9265 H   0  0  0  0  0  0  0  0  0  0  0  0
  -12.2246  -27.0295   31.6870 H   0  0  0  0  0  0  0  0  0  0  0  0
  -12.4517  -24.7275   32.7125 H   0  0  0  0  0  0  0  0  0  0  0  0
  -11.7873  -22.1777   34.6620 H   0  0  0  0  0  0  0  0  0  0  0  0
  -14.1255  -21.6175   34.2175 H   0  0  0  0  0  0  0  0  0  0  0  0
  1  2  2  0
  2  3  1  0
  3  4  2  0
  4  5  1  0
  5  6  1  0
  6  7  1  0
  7  8  1  0
  8  9  1  0
  9 10  2  0
 10 11  1  0
 11 12  2  0
 12 13  1  0
  6 14  2  0
 14 15  1  0
 15 16  2  0
 16 17  1  0
 17 18  2  0
 18 19  1  0
 19 20  2  0
  4 21  1  0
 21 22  2  0
 22  1  1  0
 20  5  1  0
 13  9  1  0
 20 15  1  0
  1 23  1  0
  2 24  1  0
  3 25  1  0
  8 26  1  0
  8 27  1  0
 10 28  1  0
 11 29  1  0
 16 30  1  0
 17 31  1  0
 18 32  1  0
 19 33  1  0
 21 34  1  0
 22 35  1  0
M  END
>  <Energy>  (631) 
204.74654143719263

>  <compound_id>  (631) 
11612

>  <target_id>  (631) 
1

>  <reference_id>  (631) 
94

>  <inspiration_ids>  (631) 
[94, 59]

>  <energy_score>  (631) 
111.17749267684064

>  <distance_score>  (631) 
11.689829933842606

>  <path>  (631) 
/opt/xchem-fragalysis-2/maxwin/BulkDock/SCRATCH/511014/C11612-P94/C11612-P94.minimised.mol

>  <scratch_subdir>  (631) 
/opt/xchem-fragalysis-2/maxwin/BulkDock/SCRATCH/511014/C11612-P94

>  <fragmenstein_runtime>  (631) 
10.090698957443237

>  <fragmenstein_outcome>  (631) 
too moved

>  <fragmenstein_mode>  (631) 
expansion

>  <fragmenstein_error>  (631) 


$$$$
C11612-P59
     RDKit          3D

 35 38  0  0  0  0  0  0  0  0999 V2000
  -13.1899  -17.5285   39.4599 C   0  0  0  0  0  0  0  0  0  0  0  0
  -12.7707  -18.4595   38.5139 C   0  0  0  0  0  0  0  0  0  0  0  0
  -12.2031  -18.0251   37.3148 C   0  0  0  0  0  0  0  0  0  0  0  0
  -12.0515  -16.6462   37.0519 C   0  0  0  0  0  0  0  0  0  0  0  0
  -11.4532  -16.2621   35.7997 N   0  0  0  0  0  0  0  0  0  0  0  0
  -11.2886  -14.9650   34.8338 C   0  0  0  0  0  0  0  0  0  0  0  0
   -9.7388  -13.5743   33.5824 S   0  0  0  0  0  0  0  0  0  0  0  0
   -9.3523  -11.5555   35.2051 C   0  0  0  0  0  0  0  0  0  0  0  0
  -10.1988  -10.0725   35.5022 C   0  0  0  0  0  0  0  0  0  0  0  0
  -10.6867   -9.0003   34.7646 C   0  0  0  0  0  0  0  0  0  0  0  0
  -10.8019   -7.9397   35.6775 C   0  0  0  0  0  0  0  0  0  0  0  0
  -10.4062   -8.2934   36.8993 N   0  0  0  0  0  0  0  0  0  0  0  0
  -10.0340   -9.6258   36.7956 O   0  0  0  0  0  0  0  0  0  0  0  0
  -12.6348  -14.8550   34.9457 N   0  0  0  0  0  0  0  0  0  0  0  0
  -12.7608  -16.0368   34.2853 C   0  0  0  0  0  0  0  0  0  0  0  0
  -12.9853  -15.4950   33.0166 C   0  0  0  0  0  0  0  0  0  0  0  0
  -11.6386  -15.1575   32.6074 C   0  0  0  0  0  0  0  0  0  0  0  0
  -10.1610  -15.9523   33.2483 C   0  0  0  0  0  0  0  0  0  0  0  0
  -10.2233  -17.0879   34.1388 C   0  0  0  0  0  0  0  0  0  0  0  0
  -11.5277  -17.0125   34.7081 C   0  0  0  0  0  0  0  0  0  0  0  0
  -12.4693  -15.7233   38.0087 C   0  0  0  0  0  0  0  0  0  0  0  0
  -13.0390  -16.1656   39.2077 C   0  0  0  0  0  0  0  0  0  0  0  0
  -13.6327  -17.8624   40.3943 H   0  0  0  0  0  0  0  0  0  0  0  0
  -12.8815  -19.5232   38.7074 H   0  0  0  0  0  0  0  0  0  0  0  0
  -11.8730  -18.7753   36.5995 H   0  0  0  0  0  0  0  0  0  0  0  0
   -9.0190  -11.8367   36.2603 H   0  0  0  0  0  0  0  0  0  0  0  0
   -8.3467  -11.2555   34.9520 H   0  0  0  0  0  0  0  0  0  0  0  0
  -10.7635   -8.9220   33.6946 H   0  0  0  0  0  0  0  0  0  0  0  0
  -11.1077   -6.9205   35.4956 H   0  0  0  0  0  0  0  0  0  0  0  0
  -13.6202  -15.8886   32.2634 H   0  0  0  0  0  0  0  0  0  0  0  0
  -11.6693  -15.2753   31.4778 H   0  0  0  0  0  0  0  0  0  0  0  0
   -9.2540  -15.7845   32.7187 H   0  0  0  0  0  0  0  0  0  0  0  0
   -9.4166  -17.6879   34.5117 H   0  0  0  0  0  0  0  0  0  0  0  0
  -12.3805  -14.6596   37.8582 H   0  0  0  0  0  0  0  0  0  0  0  0
  -13.3673  -15.4392   39.9470 H   0  0  0  0  0  0  0  0  0  0  0  0
  1  2  2  0
  2  3  1  0
  3  4  2  0
  4  5  1  0
  5  6  1  0
  6  7  1  0
  7  8  1  0
  8  9  1  0
  9 10  2  0
 10 11  1  0
 11 12  2  0
 12 13  1  0
  6 14  2  0
 14 15  1  0
 15 16  2  0
 16 17  1  0
 17 18  2  0
 18 19  1  0
 19 20  2  0
  4 21  1  0
 21 22  2  0
 22  1  1  0
 20  5  1  0
 13  9  1  0
 20 15  1  0
  1 23  1  0
  2 24  1  0
  3 25  1  0
  8 26  1  0
  8 27  1  0
 10 28  1  0
 11 29  1  0
 16 30  1  0
 17 31  1  0
 18 32  1  0
 19 33  1  0
 21 34  1  0
 22 35  1  0
M  END
>  <Energy>  (632) 
815.74688061677716

>  <compound_id>  (632) 
11612

>  <target_id>  (632) 
1

>  <reference_id>  (632) 
59

>  <inspiration_ids>  (632) 
[94, 59]

>  <energy_score>  (632) 
722.1778318564207

>  <distance_score>  (632) 
11.085917074171633

>  <path>  (632) 
/opt/xchem-fragalysis-2/maxwin/BulkDock/SCRATCH/511014/C11612-P59/C11612-P59.minimised.mol

>  <scratch_subdir>  (632) 
/opt/xchem-fragalysis-2/maxwin/BulkDock/SCRATCH/511014/C11612-P59

>  <fragmenstein_runtime>  (632) 
12.388656377792358

>  <fragmenstein_outcome>  (632) 
too moved

>  <fragmenstein_mode>  (632) 
expansion

>  <fragmenstein_error>  (632) 


$$$$
C11615-P94
     RDKit          3D

 28 30  0  0  0  0  0  0  0  0999 V2000
  -12.3337  -20.6024   33.8839 C   0  0  0  0  0  0  0  0  0  0  0  0
  -11.4181  -19.4294   34.0690 C   0  0  0  0  0  0  0  0  0  0  0  0
  -11.6710  -18.4269   35.0052 C   0  0  0  0  0  0  0  0  0  0  0  0
  -10.7385  -17.3651   35.2345 C   0  0  0  0  0  0  0  0  0  0  0  0
   -9.4768  -17.3161   34.5639 C   0  0  0  0  0  0  0  0  0  0  0  0
   -8.3341  -16.5208   34.4460 N   0  0  0  0  0  0  0  0  0  0  0  0
   -7.4567  -17.0718   33.5284 C   0  0  0  0  0  0  0  0  0  0  0  0
   -5.9760  -16.4468   32.7510 S   0  0  0  0  0  0  0  0  0  0  0  0
   -6.2015  -14.9395   30.9530 C   0  0  0  0  0  0  0  0  0  0  0  0
   -5.8835  -13.5085   30.6914 C   0  0  0  0  0  0  0  0  0  0  0  0
   -6.1942  -12.3942   31.5146 C   0  0  0  0  0  0  0  0  0  0  0  0
   -5.2497  -11.5053   31.2358 C   0  0  0  0  0  0  0  0  0  0  0  0
   -4.4149  -11.9702   30.3059 N   0  0  0  0  0  0  0  0  0  0  0  0
   -4.8699  -13.1463   29.9182 O   0  0  0  0  0  0  0  0  0  0  0  0
   -7.7700  -18.3430   33.5110 N   0  0  0  0  0  0  0  0  0  0  0  0
   -9.1358  -18.3768   33.7428 C   0  0  0  0  0  0  0  0  0  0  0  0
  -10.1591  -19.3790   33.3994 C   0  0  0  0  0  0  0  0  0  0  0  0
  -12.0521  -21.4122   34.5516 H   0  0  0  0  0  0  0  0  0  0  0  0
  -12.2721  -20.9983   32.8654 H   0  0  0  0  0  0  0  0  0  0  0  0
  -13.3740  -20.3317   34.0900 H   0  0  0  0  0  0  0  0  0  0  0  0
  -12.5935  -18.4430   35.5797 H   0  0  0  0  0  0  0  0  0  0  0  0
  -11.0494  -16.6629   35.9791 H   0  0  0  0  0  0  0  0  0  0  0  0
   -8.2421  -15.5869   34.7946 H   0  0  0  0  0  0  0  0  0  0  0  0
   -5.8188  -15.5445   30.1245 H   0  0  0  0  0  0  0  0  0  0  0  0
   -7.2062  -14.5709   31.2804 H   0  0  0  0  0  0  0  0  0  0  0  0
   -7.0580  -12.2352   32.0699 H   0  0  0  0  0  0  0  0  0  0  0  0
   -5.1283  -10.6101   31.8485 H   0  0  0  0  0  0  0  0  0  0  0  0
   -9.9020  -20.1371   32.6708 H   0  0  0  0  0  0  0  0  0  0  0  0
  1  2  1  0
  2  3  2  0
  3  4  1  0
  4  5  2  0
  5  6  1  0
  6  7  1  0
  7  8  1  0
  8  9  1  0
  9 10  1  0
 10 11  2  0
 11 12  1  0
 12 13  2  0
 13 14  1  0
  7 15  2  0
 15 16  1  0
 16 17  2  0
 17  2  1  0
 16  5  1  0
 14 10  1  0
  1 18  1  0
  1 19  1  0
  1 20  1  0
  3 21  1  0
  4 22  1  0
  6 23  1  0
  9 24  1  0
  9 25  1  0
 11 26  1  0
 12 27  1  0
 17 28  1  0
M  END
>  <Energy>  (633) 
151.92019972991321

>  <compound_id>  (633) 
11615

>  <target_id>  (633) 
1

>  <reference_id>  (633) 
94

>  <inspiration_ids>  (633) 
[94, 59]

>  <energy_score>  (633) 
118.75749360297783

>  <distance_score>  (633) 
10.21591442875548

>  <path>  (633) 
/opt/xchem-fragalysis-2/maxwin/BulkDock/SCRATCH/511014/C11615-P94/C11615-P94.minimised.mol

>  <scratch_subdir>  (633) 
/opt/xchem-fragalysis-2/maxwin/BulkDock/SCRATCH/511014/C11615-P94

>  <fragmenstein_runtime>  (633) 
8.960054874420166

>  <fragmenstein_outcome>  (633) 
too moved

>  <fragmenstein_mode>  (633) 
expansion

>  <fragmenstein_error>  (633) 


$$$$
C11615-P59
     RDKit          3D

 28 30  0  0  0  0  0  0  0  0999 V2000
  -10.2910  -19.2516   36.4636 C   0  0  0  0  0  0  0  0  0  0  0  0
  -10.6171  -18.1020   35.5589 C   0  0  0  0  0  0  0  0  0  0  0  0
  -11.7883  -17.3613   35.7709 C   0  0  0  0  0  0  0  0  0  0  0  0
  -12.0283  -16.1666   35.0802 C   0  0  0  0  0  0  0  0  0  0  0  0
  -10.9501  -15.6967   34.2949 C   0  0  0  0  0  0  0  0  0  0  0  0
  -10.7490  -14.6770   33.3235 N   0  0  0  0  0  0  0  0  0  0  0  0
   -9.3591  -14.3192   33.0431 C   0  0  0  0  0  0  0  0  0  0  0  0
   -8.1753  -12.4493   33.1623 S   0  0  0  0  0  0  0  0  0  0  0  0
   -6.3841  -11.2947   33.2233 C   0  0  0  0  0  0  0  0  0  0  0  0
   -5.8200  -10.1925   34.5914 C   0  0  0  0  0  0  0  0  0  0  0  0
   -6.1148  -10.0411   35.9473 C   0  0  0  0  0  0  0  0  0  0  0  0
   -5.2968   -8.9919   36.3897 C   0  0  0  0  0  0  0  0  0  0  0  0
   -4.5445   -8.5094   35.4057 N   0  0  0  0  0  0  0  0  0  0  0  0
   -4.9153   -9.2171   34.2764 O   0  0  0  0  0  0  0  0  0  0  0  0
   -9.2238  -15.6474   32.8232 N   0  0  0  0  0  0  0  0  0  0  0  0
   -9.8600  -16.4353   33.9555 C   0  0  0  0  0  0  0  0  0  0  0  0
   -9.7226  -17.7167   34.5410 C   0  0  0  0  0  0  0  0  0  0  0  0
  -11.1760  -19.8698   36.6425 H   0  0  0  0  0  0  0  0  0  0  0  0
   -9.9325  -18.8703   37.4254 H   0  0  0  0  0  0  0  0  0  0  0  0
   -9.5030  -19.8814   36.0399 H   0  0  0  0  0  0  0  0  0  0  0  0
  -12.5156  -17.6962   36.5064 H   0  0  0  0  0  0  0  0  0  0  0  0
  -12.9428  -15.6059   35.2110 H   0  0  0  0  0  0  0  0  0  0  0  0
  -11.1861  -15.1183   32.5430 H   0  0  0  0  0  0  0  0  0  0  0  0
   -5.5579  -11.8882   33.3579 H   0  0  0  0  0  0  0  0  0  0  0  0
   -5.9190  -11.0690   32.3036 H   0  0  0  0  0  0  0  0  0  0  0  0
   -6.8324  -10.6173   36.5136 H   0  0  0  0  0  0  0  0  0  0  0  0
   -5.2134   -8.5684   37.3810 H   0  0  0  0  0  0  0  0  0  0  0  0
   -8.9623  -18.4098   34.2084 H   0  0  0  0  0  0  0  0  0  0  0  0
  1  2  1  0
  2  3  2  0
  3  4  1  0
  4  5  2  0
  5  6  1  0
  6  7  1  0
  7  8  1  0
  8  9  1  0
  9 10  1  0
 10 11  2  0
 11 12  1  0
 12 13  2  0
 13 14  1  0
  7 15  2  0
 15 16  1  0
 16 17  2  0
 17  2  1  0
 16  5  1  0
 14 10  1  0
  1 18  1  0
  1 19  1  0
  1 20  1  0
  3 21  1  0
  4 22  1  0
  6 23  1  0
  9 24  1  0
  9 25  1  0
 11 26  1  0
 12 27  1  0
 17 28  1  0
M  END
>  <Energy>  (634) 
313.82772483042822

>  <compound_id>  (634) 
11615

>  <target_id>  (634) 
1

>  <reference_id>  (634) 
59

>  <inspiration_ids>  (634) 
[94, 59]

>  <energy_score>  (634) 
280.6650187034817

>  <distance_score>  (634) 
10.061539208287027

>  <path>  (634) 
/opt/xchem-fragalysis-2/maxwin/BulkDock/SCRATCH/511014/C11615-P59/C11615-P59.minimised.mol

>  <scratch_subdir>  (634) 
/opt/xchem-fragalysis-2/maxwin/BulkDock/SCRATCH/511014/C11615-P59

>  <fragmenstein_runtime>  (634) 
9.391823053359985

>  <fragmenstein_outcome>  (634) 
too moved

>  <fragmenstein_mode>  (634) 
expansion

>  <fragmenstein_error>  (634) 


$$$$
C11616-P94
     RDKit          3D

 41 43  0  0  0  0  0  0  0  0999 V2000
  -10.1644  -15.8477   38.6782 C   0  0  0  0  0  0  0  0  0  0  0  0
   -9.5449  -16.9015   37.7645 C   0  0  0  0  0  0  0  0  0  0  0  0
   -8.8961  -16.3018   36.5002 C   0  0  0  0  0  0  0  0  0  0  0  0
   -9.6390  -16.2566   35.2510 N   0  0  0  0  0  0  0  0  0  0  0  0
   -9.0159  -16.5463   33.9919 C   0  0  0  0  0  0  0  0  0  0  0  0
   -7.3749  -15.7576   33.2634 S   0  0  0  0  0  0  0  0  0  0  0  0
   -7.1693  -14.0659   31.5251 C   0  0  0  0  0  0  0  0  0  0  0  0
   -6.1460  -14.2177   30.2828 C   0  0  0  0  0  0  0  0  0  0  0  0
   -6.9347  -12.0935   31.9494 C   0  0  0  0  0  0  0  0  0  0  0  0
   -7.9848  -11.6269   32.4591 O   0  0  0  0  0  0  0  0  0  0  0  0
   -5.4800  -11.3837   31.7389 N   0  0  0  0  0  0  0  0  0  0  0  0
   -4.9123   -9.9243   32.2377 C   0  0  0  0  0  0  0  0  0  0  0  0
   -3.5756   -9.4064   32.1297 C   0  0  0  0  0  0  0  0  0  0  0  0
   -3.2080   -8.8151   33.3530 C   0  0  0  0  0  0  0  0  0  0  0  0
   -4.2296   -8.8292   34.2001 N   0  0  0  0  0  0  0  0  0  0  0  0
   -5.2586   -9.4723   33.5356 O   0  0  0  0  0  0  0  0  0  0  0  0
   -9.3382  -17.8436   33.9178 N   0  0  0  0  0  0  0  0  0  0  0  0
  -10.6199  -17.9811   34.5601 C   0  0  0  0  0  0  0  0  0  0  0  0
  -11.6096  -19.0076   34.5000 C   0  0  0  0  0  0  0  0  0  0  0  0
  -12.8584  -18.7927   35.0762 C   0  0  0  0  0  0  0  0  0  0  0  0
  -13.1224  -17.5867   35.7189 C   0  0  0  0  0  0  0  0  0  0  0  0
  -12.1499  -16.5767   35.8267 C   0  0  0  0  0  0  0  0  0  0  0  0
  -10.9097  -16.8177   35.2263 C   0  0  0  0  0  0  0  0  0  0  0  0
  -10.5641  -16.3232   39.5797 H   0  0  0  0  0  0  0  0  0  0  0  0
   -9.4151  -15.1137   38.9926 H   0  0  0  0  0  0  0  0  0  0  0  0
  -10.9815  -15.3126   38.1918 H   0  0  0  0  0  0  0  0  0  0  0  0
  -10.2895  -17.6695   37.5535 H   0  0  0  0  0  0  0  0  0  0  0  0
   -8.7450  -17.3706   38.3507 H   0  0  0  0  0  0  0  0  0  0  0  0
   -8.7210  -15.2631   36.7164 H   0  0  0  0  0  0  0  0  0  0  0  0
   -7.9444  -16.8072   36.3021 H   0  0  0  0  0  0  0  0  0  0  0  0
   -8.1503  -14.4165   31.2433 H   0  0  0  0  0  0  0  0  0  0  0  0
   -6.6119  -14.0009   29.3105 H   0  0  0  0  0  0  0  0  0  0  0  0
   -5.7379  -15.2254   30.2172 H   0  0  0  0  0  0  0  0  0  0  0  0
   -5.3564  -13.4760   30.2381 H   0  0  0  0  0  0  0  0  0  0  0  0
   -4.8770  -12.0064   31.2203 H   0  0  0  0  0  0  0  0  0  0  0  0
   -2.8066   -9.7632   31.4705 H   0  0  0  0  0  0  0  0  0  0  0  0
   -2.2457   -8.4448   33.6778 H   0  0  0  0  0  0  0  0  0  0  0  0
  -11.4223  -19.9021   33.9180 H   0  0  0  0  0  0  0  0  0  0  0  0
  -13.6248  -19.5561   34.9937 H   0  0  0  0  0  0  0  0  0  0  0  0
  -14.0998  -17.4280   36.1698 H   0  0  0  0  0  0  0  0  0  0  0  0
  -12.3572  -15.6653   36.3720 H   0  0  0  0  0  0  0  0  0  0  0  0
  1  2  1  0
  2  3  1  0
  3  4  1  0
  4  5  1  0
  5  6  1  0
  6  7  1  0
  7  8  1  0
  7  9  1  0
  9 10  2  0
  9 11  1  0
 11 12  1  0
 12 13  2  0
 13 14  1  0
 14 15  2  0
 15 16  1  0
  5 17  2  0
 17 18  1  0
 18 19  2  0
 19 20  1  0
 20 21  2  0
 21 22  1  0
 22 23  2  0
 23  4  1  0
 16 12  1  0
 23 18  1  0
  1 24  1  0
  1 25  1  0
  1 26  1  0
  2 27  1  0
  2 28  1  0
  3 29  1  0
  3 30  1  0
  7 31  1  0
  8 32  1  0
  8 33  1  0
  8 34  1  0
 11 35  1  0
 13 36  1  0
 14 37  1  0
 19 38  1  0
 20 39  1  0
 21 40  1  0
 22 41  1  0
M  END
>  <Energy>  (635) 
326.94713872428503

>  <compound_id>  (635) 
11616

>  <target_id>  (635) 
1

>  <reference_id>  (635) 
94

>  <inspiration_ids>  (635) 
[94, 59]

>  <energy_score>  (635) 
266.56715655137793

>  <distance_score>  (635) 
8.999538108382763

>  <path>  (635) 
/opt/xchem-fragalysis-2/maxwin/BulkDock/SCRATCH/511014/C11616-P94/C11616-P94.minimised.mol

>  <scratch_subdir>  (635) 
/opt/xchem-fragalysis-2/maxwin/BulkDock/SCRATCH/511014/C11616-P94

>  <fragmenstein_runtime>  (635) 
18.968993663787842

>  <fragmenstein_outcome>  (635) 
too moved

>  <fragmenstein_mode>  (635) 
expansion

>  <fragmenstein_error>  (635) 


$$$$
C11616-P59
     RDKit          3D

 41 43  0  0  0  0  0  0  0  0999 V2000
  -14.8542  -14.6365   35.1162 C   0  0  0  0  0  0  0  0  0  0  0  0
  -13.5302  -15.2398   35.5651 C   0  0  0  0  0  0  0  0  0  0  0  0
  -12.7333  -15.7672   34.3708 C   0  0  0  0  0  0  0  0  0  0  0  0
  -11.3191  -16.0554   34.6224 N   0  0  0  0  0  0  0  0  0  0  0  0
  -10.0923  -15.6972   33.8924 C   0  0  0  0  0  0  0  0  0  0  0  0
   -9.4274  -13.9975   33.0380 S   0  0  0  0  0  0  0  0  0  0  0  0
   -7.4163  -12.8124   32.9042 C   0  0  0  0  0  0  0  0  0  0  0  0
   -6.8649  -13.7632   31.5483 C   0  0  0  0  0  0  0  0  0  0  0  0
   -6.2138  -11.2942   33.2155 C   0  0  0  0  0  0  0  0  0  0  0  0
   -5.7187  -10.9785   32.2109 O   0  0  0  0  0  0  0  0  0  0  0  0
   -5.7992  -10.5564   34.7530 N   0  0  0  0  0  0  0  0  0  0  0  0
   -4.8009   -9.5875   35.1030 C   0  0  0  0  0  0  0  0  0  0  0  0
   -4.6556   -9.0380   36.3700 C   0  0  0  0  0  0  0  0  0  0  0  0
   -3.5087   -8.2389   36.3155 C   0  0  0  0  0  0  0  0  0  0  0  0
   -2.9916   -8.2360   35.0945 N   0  0  0  0  0  0  0  0  0  0  0  0
   -3.7971   -9.1005   34.3463 O   0  0  0  0  0  0  0  0  0  0  0  0
   -9.3867  -16.8077   33.8411 N   0  0  0  0  0  0  0  0  0  0  0  0
   -9.8809  -17.7136   34.6918 C   0  0  0  0  0  0  0  0  0  0  0  0
   -9.3255  -18.9397   34.9753 C   0  0  0  0  0  0  0  0  0  0  0  0
   -9.8937  -19.6319   36.0030 C   0  0  0  0  0  0  0  0  0  0  0  0
  -11.0872  -19.2289   36.6115 C   0  0  0  0  0  0  0  0  0  0  0  0
  -11.7186  -18.0493   36.2296 C   0  0  0  0  0  0  0  0  0  0  0  0
  -11.0465  -17.2800   35.2787 C   0  0  0  0  0  0  0  0  0  0  0  0
  -14.6947  -13.7879   34.4436 H   0  0  0  0  0  0  0  0  0  0  0  0
  -15.4649  -15.3797   34.5936 H   0  0  0  0  0  0  0  0  0  0  0  0
  -15.4204  -14.2799   35.9823 H   0  0  0  0  0  0  0  0  0  0  0  0
  -13.7539  -16.0415   36.2726 H   0  0  0  0  0  0  0  0  0  0  0  0
  -12.9617  -14.4924   36.1273 H   0  0  0  0  0  0  0  0  0  0  0  0
  -12.8134  -15.1397   33.4781 H   0  0  0  0  0  0  0  0  0  0  0  0
  -13.2173  -16.7146   34.0959 H   0  0  0  0  0  0  0  0  0  0  0  0
   -8.0653  -12.0056   32.5694 H   0  0  0  0  0  0  0  0  0  0  0  0
   -6.4581  -13.4199   30.6201 H   0  0  0  0  0  0  0  0  0  0  0  0
   -7.7177  -14.3303   31.2729 H   0  0  0  0  0  0  0  0  0  0  0  0
   -6.0881  -14.5173   31.7567 H   0  0  0  0  0  0  0  0  0  0  0  0
   -6.4089  -10.9267   35.4698 H   0  0  0  0  0  0  0  0  0  0  0  0
   -5.2826   -9.2287   37.2277 H   0  0  0  0  0  0  0  0  0  0  0  0
   -3.0286   -7.6623   37.0939 H   0  0  0  0  0  0  0  0  0  0  0  0
   -8.4656  -19.3305   34.4475 H   0  0  0  0  0  0  0  0  0  0  0  0
   -9.3767  -20.5538   36.2097 H   0  0  0  0  0  0  0  0  0  0  0  0
  -11.5541  -19.8491   37.3720 H   0  0  0  0  0  0  0  0  0  0  0  0
  -12.6428  -17.7455   36.6968 H   0  0  0  0  0  0  0  0  0  0  0  0
  1  2  1  0
  2  3  1  0
  3  4  1  0
  4  5  1  0
  5  6  1  0
  6  7  1  0
  7  8  1  0
  7  9  1  0
  9 10  2  0
  9 11  1  0
 11 12  1  0
 12 13  2  0
 13 14  1  0
 14 15  2  0
 15 16  1  0
  5 17  2  0
 17 18  1  0
 18 19  2  0
 19 20  1  0
 20 21  2  0
 21 22  1  0
 22 23  2  0
 23  4  1  0
 16 12  1  0
 23 18  1  0
  1 24  1  0
  1 25  1  0
  1 26  1  0
  2 27  1  0
  2 28  1  0
  3 29  1  0
  3 30  1  0
  7 31  1  0
  8 32  1  0
  8 33  1  0
  8 34  1  0
 11 35  1  0
 13 36  1  0
 14 37  1  0
 19 38  1  0
 20 39  1  0
 21 40  1  0
 22 41  1  0
M  END
>  <Energy>  (636) 
372.80558062563966

>  <compound_id>  (636) 
11616

>  <target_id>  (636) 
1

>  <reference_id>  (636) 
59

>  <inspiration_ids>  (636) 
[94, 59]

>  <energy_score>  (636) 
312.4255984527183

>  <distance_score>  (636) 
9.17341037648199

>  <path>  (636) 
/opt/xchem-fragalysis-2/maxwin/BulkDock/SCRATCH/511014/C11616-P59/C11616-P59.minimised.mol

>  <scratch_subdir>  (636) 
/opt/xchem-fragalysis-2/maxwin/BulkDock/SCRATCH/511014/C11616-P59

>  <fragmenstein_runtime>  (636) 
37.92794132232666

>  <fragmenstein_outcome>  (636) 
too moved

>  <fragmenstein_mode>  (636) 
expansion

>  <fragmenstein_error>  (636) 


$$$$
C11617-P94
     RDKit          3D

 41 44  0  0  0  0  0  0  0  0999 V2000
   -8.0359   -8.8411   27.4057 C   0  0  0  0  0  0  0  0  0  0  0  0
   -6.3675   -8.9901   27.8302 C   0  0  0  0  0  0  0  0  0  0  0  0
   -6.0080   -7.6232   27.8844 C   0  0  0  0  0  0  0  0  0  0  0  0
   -6.6054  -10.3087   29.1896 C   0  0  0  0  0  0  0  0  0  0  0  0
   -7.2640   -9.9894   30.1255 O   0  0  0  0  0  0  0  0  0  0  0  0
   -5.9215  -12.0079   28.7392 N   0  0  0  0  0  0  0  0  0  0  0  0
   -4.4699  -12.3025   29.3708 C   0  0  0  0  0  0  0  0  0  0  0  0
   -5.4589  -13.1734   30.6120 C   0  0  0  0  0  0  0  0  0  0  0  0
   -6.4639  -14.7631   31.2340 C   0  0  0  0  0  0  0  0  0  0  0  0
   -5.8476  -16.0701   31.8865 N   0  0  0  0  0  0  0  0  0  0  0  0
   -6.6705  -16.6891   32.9401 C   0  0  0  0  0  0  0  0  0  0  0  0
   -6.6884  -17.9506   33.4877 C   0  0  0  0  0  0  0  0  0  0  0  0
   -7.3494  -18.1006   34.6992 C   0  0  0  0  0  0  0  0  0  0  0  0
   -8.4191  -17.2998   34.9986 C   0  0  0  0  0  0  0  0  0  0  0  0
   -8.8510  -16.4622   34.0166 C   0  0  0  0  0  0  0  0  0  0  0  0
   -7.8351  -15.9837   33.1564 C   0  0  0  0  0  0  0  0  0  0  0  0
   -7.8125  -14.7717   32.3073 N   0  0  0  0  0  0  0  0  0  0  0  0
   -6.1632  -13.5205   29.4523 C   0  0  0  0  0  0  0  0  0  0  0  0
   -6.2140   -9.2900   26.1626 C   0  0  0  0  0  0  0  0  0  0  0  0
   -6.2268   -8.4305   25.0670 C   0  0  0  0  0  0  0  0  0  0  0  0
   -6.0169   -9.2549   23.9616 C   0  0  0  0  0  0  0  0  0  0  0  0
   -5.9433  -10.5354   24.3130 N   0  0  0  0  0  0  0  0  0  0  0  0
   -6.1665  -10.5665   25.6786 O   0  0  0  0  0  0  0  0  0  0  0  0
   -8.3707   -9.4691   26.5616 H   0  0  0  0  0  0  0  0  0  0  0  0
   -8.6639   -9.2017   28.2112 H   0  0  0  0  0  0  0  0  0  0  0  0
   -8.3019   -7.8395   27.0460 H   0  0  0  0  0  0  0  0  0  0  0  0
   -5.0084   -7.7011   27.4584 H   0  0  0  0  0  0  0  0  0  0  0  0
   -6.0631   -7.2389   28.8634 H   0  0  0  0  0  0  0  0  0  0  0  0
   -6.5471   -6.9156   27.2450 H   0  0  0  0  0  0  0  0  0  0  0  0
   -3.9503  -11.7414   30.1404 H   0  0  0  0  0  0  0  0  0  0  0  0
   -3.6308  -12.3765   28.6971 H   0  0  0  0  0  0  0  0  0  0  0  0
   -5.7961  -12.3749   31.3043 H   0  0  0  0  0  0  0  0  0  0  0  0
   -6.1330  -18.7483   33.0217 H   0  0  0  0  0  0  0  0  0  0  0  0
   -7.0995  -18.8970   35.3788 H   0  0  0  0  0  0  0  0  0  0  0  0
   -9.0016  -17.4330   35.9016 H   0  0  0  0  0  0  0  0  0  0  0  0
   -9.8319  -16.0045   34.0685 H   0  0  0  0  0  0  0  0  0  0  0  0
   -8.0311  -13.9586   32.8474 H   0  0  0  0  0  0  0  0  0  0  0  0
   -7.1986  -13.7591   29.1562 H   0  0  0  0  0  0  0  0  0  0  0  0
   -6.0683  -14.5102   28.9998 H   0  0  0  0  0  0  0  0  0  0  0  0
   -6.3937   -7.3686   25.0524 H   0  0  0  0  0  0  0  0  0  0  0  0
   -5.9374   -8.9952   22.9156 H   0  0  0  0  0  0  0  0  0  0  0  0
  1  2  1  0
  2  3  1  0
  2  4  1  0
  4  5  2  0
  4  6  1  0
  6  7  1  0
  7  8  1  0
  8  9  1  0
  9 10  2  0
 10 11  1  0
 11 12  2  0
 12 13  1  0
 13 14  2  0
 14 15  1  0
 15 16  2  0
 16 17  1  0
  8 18  1  0
  2 19  1  0
 19 20  2  0
 20 21  1  0
 21 22  2  0
 22 23  1  0
 18  6  1  0
 23 19  1  0
 17  9  1  0
 16 11  1  0
  1 24  1  0
  1 25  1  0
  1 26  1  0
  3 27  1  0
  3 28  1  0
  3 29  1  0
  7 30  1  0
  7 31  1  0
  8 32  1  0
 12 33  1  0
 13 34  1  0
 14 35  1  0
 15 36  1  0
 17 37  1  0
 18 38  1  0
 18 39  1  0
 20 40  1  0
 21 41  1  0
M  END
>  <Energy>  (637) 
511.48386607425613

>  <compound_id>  (637) 
11617

>  <target_id>  (637) 
1

>  <reference_id>  (637) 
94

>  <inspiration_ids>  (637) 
[94, 59]

>  <energy_score>  (637) 
421.8936483797123

>  <distance_score>  (637) 
10.53364215585987

>  <path>  (637) 
/opt/xchem-fragalysis-2/maxwin/BulkDock/SCRATCH/511014/C11617-P94/C11617-P94.minimised.mol

>  <scratch_subdir>  (637) 
/opt/xchem-fragalysis-2/maxwin/BulkDock/SCRATCH/511014/C11617-P94

>  <fragmenstein_runtime>  (637) 
24.28436589241028

>  <fragmenstein_outcome>  (637) 
too moved

>  <fragmenstein_mode>  (637) 
expansion

>  <fragmenstein_error>  (637) 


$$$$
C11617-P59
     RDKit          3D

 41 44  0  0  0  0  0  0  0  0999 V2000
  -10.0292   -8.6487   27.6956 C   0  0  0  0  0  0  0  0  0  0  0  0
   -8.3769   -8.6112   27.5150 C   0  0  0  0  0  0  0  0  0  0  0  0
   -8.5074   -9.5321   25.9451 C   0  0  0  0  0  0  0  0  0  0  0  0
   -6.7517   -9.3740   27.8359 C   0  0  0  0  0  0  0  0  0  0  0  0
   -5.8602   -8.7308   27.2181 O   0  0  0  0  0  0  0  0  0  0  0  0
   -6.6546  -11.1332   28.8780 N   0  0  0  0  0  0  0  0  0  0  0  0
   -7.0431  -12.7262   27.6386 C   0  0  0  0  0  0  0  0  0  0  0  0
   -7.0245  -13.8705   28.7649 C   0  0  0  0  0  0  0  0  0  0  0  0
   -7.9831  -15.8724   28.1052 C   0  0  0  0  0  0  0  0  0  0  0  0
   -7.9590  -17.5626   28.3820 N   0  0  0  0  0  0  0  0  0  0  0  0
   -8.8209  -19.2589   28.5430 C   0  0  0  0  0  0  0  0  0  0  0  0
  -10.4109  -20.2298   29.3859 C   0  0  0  0  0  0  0  0  0  0  0  0
  -11.2141  -21.3603   29.2054 C   0  0  0  0  0  0  0  0  0  0  0  0
  -10.7813  -21.6832   28.0660 C   0  0  0  0  0  0  0  0  0  0  0  0
   -9.9819  -20.4239   27.4597 C   0  0  0  0  0  0  0  0  0  0  0  0
   -9.5555  -18.5077   27.7783 C   0  0  0  0  0  0  0  0  0  0  0  0
   -9.1724  -16.8520   27.2160 N   0  0  0  0  0  0  0  0  0  0  0  0
   -5.5636  -12.1525   29.0816 C   0  0  0  0  0  0  0  0  0  0  0  0
   -8.1631   -7.2478   26.5833 C   0  0  0  0  0  0  0  0  0  0  0  0
   -7.7430   -7.0902   25.2657 C   0  0  0  0  0  0  0  0  0  0  0  0
   -8.6765   -6.1675   24.7269 C   0  0  0  0  0  0  0  0  0  0  0  0
   -9.3969   -5.5779   25.6837 N   0  0  0  0  0  0  0  0  0  0  0  0
   -9.0138   -6.1995   26.8574 O   0  0  0  0  0  0  0  0  0  0  0  0
  -10.5933   -9.0601   26.8516 H   0  0  0  0  0  0  0  0  0  0  0  0
  -10.4940   -7.6478   27.6906 H   0  0  0  0  0  0  0  0  0  0  0  0
  -10.3377   -9.0522   28.6632 H   0  0  0  0  0  0  0  0  0  0  0  0
   -7.5207   -9.6184   25.4714 H   0  0  0  0  0  0  0  0  0  0  0  0
   -8.8750  -10.5549   25.9880 H   0  0  0  0  0  0  0  0  0  0  0  0
   -9.2045   -9.0408   25.2519 H   0  0  0  0  0  0  0  0  0  0  0  0
   -8.0161  -12.7960   27.0976 H   0  0  0  0  0  0  0  0  0  0  0  0
   -6.3912  -12.5619   26.7706 H   0  0  0  0  0  0  0  0  0  0  0  0
   -6.4461  -14.3403   29.5799 H   0  0  0  0  0  0  0  0  0  0  0  0
  -10.7419  -20.2247   30.4647 H   0  0  0  0  0  0  0  0  0  0  0  0
  -11.9570  -21.8064   29.7993 H   0  0  0  0  0  0  0  0  0  0  0  0
  -11.1856  -22.5002   27.4771 H   0  0  0  0  0  0  0  0  0  0  0  0
  -10.6634  -20.6205   26.5633 H   0  0  0  0  0  0  0  0  0  0  0  0
   -9.8767  -16.3715   26.6877 H   0  0  0  0  0  0  0  0  0  0  0  0
   -4.7824  -12.1318   29.8019 H   0  0  0  0  0  0  0  0  0  0  0  0
   -4.8207  -11.9472   28.2689 H   0  0  0  0  0  0  0  0  0  0  0  0
   -7.0579   -7.7056   24.7025 H   0  0  0  0  0  0  0  0  0  0  0  0
   -8.8107   -5.8595   23.6998 H   0  0  0  0  0  0  0  0  0  0  0  0
  1  2  1  0
  2  3  1  0
  2  4  1  0
  4  5  2  0
  4  6  1  0
  6  7  1  0
  7  8  1  0
  8  9  1  0
  9 10  2  0
 10 11  1  0
 11 12  2  0
 12 13  1  0
 13 14  2  0
 14 15  1  0
 15 16  2  0
 16 17  1  0
  8 18  1  0
  2 19  1  0
 19 20  2  0
 20 21  1  0
 21 22  2  0
 22 23  1  0
 18  6  1  0
 23 19  1  0
 17  9  1  0
 16 11  1  0
  1 24  1  0
  1 25  1  0
  1 26  1  0
  3 27  1  0
  3 28  1  0
  3 29  1  0
  7 30  1  0
  7 31  1  0
  8 32  1  0
 12 33  1  0
 13 34  1  0
 14 35  1  0
 15 36  1  0
 17 37  1  0
 18 38  1  0
 18 39  1  0
 20 40  1  0
 21 41  1  0
M  END
>  <Energy>  (638) 
1698.388546600647

>  <compound_id>  (638) 
11617

>  <target_id>  (638) 
1

>  <reference_id>  (638) 
59

>  <inspiration_ids>  (638) 
[94, 59]

>  <energy_score>  (638) 
1608.7983289061128

>  <distance_score>  (638) 
8.970003601161082

>  <path>  (638) 
/opt/xchem-fragalysis-2/maxwin/BulkDock/SCRATCH/511014/C11617-P59/C11617-P59.minimised.mol

>  <scratch_subdir>  (638) 
/opt/xchem-fragalysis-2/maxwin/BulkDock/SCRATCH/511014/C11617-P59

>  <fragmenstein_runtime>  (638) 
20.89366126060486

>  <fragmenstein_outcome>  (638) 
too moved

>  <fragmenstein_mode>  (638) 
expansion

>  <fragmenstein_error>  (638) 


$$$$
C11618-P94
     RDKit          3D

 30 32  0  0  0  0  0  0  0  0999 V2000
  -12.3853  -17.4310   29.5780 O   0  0  0  0  0  0  0  0  0  0  0  0
  -12.0292  -18.1484   28.6803 C   0  0  0  0  0  0  0  0  0  0  0  0
  -11.5177  -17.3409   27.6351 O   0  0  0  0  0  0  0  0  0  0  0  0
  -12.3831  -15.9623   27.6100 C   0  0  0  0  0  0  0  0  0  0  0  0
  -11.8229  -14.7369   26.9609 C   0  0  0  0  0  0  0  0  0  0  0  0
  -10.7919  -14.3434   26.1481 C   0  0  0  0  0  0  0  0  0  0  0  0
  -11.0990  -12.9971   25.8278 C   0  0  0  0  0  0  0  0  0  0  0  0
  -12.1856  -12.5563   26.4505 N   0  0  0  0  0  0  0  0  0  0  0  0
  -12.6152  -13.6327   27.1925 O   0  0  0  0  0  0  0  0  0  0  0  0
  -12.1161  -20.2208   28.9798 C   0  0  0  0  0  0  0  0  0  0  0  0
  -11.8000  -21.4422   28.0075 C   0  0  0  0  0  0  0  0  0  0  0  0
  -11.6436  -22.8512   28.0635 C   0  0  0  0  0  0  0  0  0  0  0  0
  -11.7933  -23.4632   29.2487 C   0  0  0  0  0  0  0  0  0  0  0  0
  -11.9152  -22.5745   30.2837 C   0  0  0  0  0  0  0  0  0  0  0  0
  -12.1384  -22.9308   31.5885 N   0  0  0  0  0  0  0  0  0  0  0  0
  -12.0001  -21.8205   32.3333 C   0  0  0  0  0  0  0  0  0  0  0  0
  -12.4269  -21.8100   33.7374 C   0  0  0  0  0  0  0  0  0  0  0  0
  -12.1415  -23.0101   34.3022 F   0  0  0  0  0  0  0  0  0  0  0  0
  -13.7780  -21.6521   33.8294 F   0  0  0  0  0  0  0  0  0  0  0  0
  -11.5410  -20.8520   31.5774 N   0  0  0  0  0  0  0  0  0  0  0  0
  -11.8493  -21.1553   30.2348 C   0  0  0  0  0  0  0  0  0  0  0  0
  -13.3316  -16.1951   27.1049 H   0  0  0  0  0  0  0  0  0  0  0  0
  -12.7014  -15.6547   28.6128 H   0  0  0  0  0  0  0  0  0  0  0  0
   -9.9815  -14.9583   25.7907 H   0  0  0  0  0  0  0  0  0  0  0  0
  -10.6038  -12.2945   25.1791 H   0  0  0  0  0  0  0  0  0  0  0  0
  -11.6116  -21.2372   26.9513 H   0  0  0  0  0  0  0  0  0  0  0  0
  -11.4812  -23.4194   27.1525 H   0  0  0  0  0  0  0  0  0  0  0  0
  -11.7910  -24.5366   29.3741 H   0  0  0  0  0  0  0  0  0  0  0  0
  -12.4789  -23.8307   31.9115 H   0  0  0  0  0  0  0  0  0  0  0  0
  -11.9662  -21.0053   34.3100 H   0  0  0  0  0  0  0  0  0  0  0  0
  1  2  2  0
  2  3  1  0
  3  4  1  0
  4  5  1  0
  5  6  2  0
  6  7  1  0
  7  8  2  0
  8  9  1  0
  2 10  1  0
 10 11  2  0
 11 12  1  0
 12 13  2  0
 13 14  1  0
 14 15  1  0
 15 16  1  0
 16 17  1  0
 17 18  1  0
 17 19  1  0
 16 20  2  0
 20 21  1  0
  9  5  1  0
 21 10  1  0
 21 14  2  0
  4 22  1  0
  4 23  1  0
  6 24  1  0
  7 25  1  0
 11 26  1  0
 12 27  1  0
 13 28  1  0
 15 29  1  0
 17 30  1  0
M  END
>  <Energy>  (639) 
282.31143602072348

>  <compound_id>  (639) 
11618

>  <target_id>  (639) 
1

>  <reference_id>  (639) 
94

>  <inspiration_ids>  (639) 
[94, 59]

>  <energy_score>  (639) 
206.11189028347184

>  <distance_score>  (639) 
11.46750326309018

>  <path>  (639) 
/opt/xchem-fragalysis-2/maxwin/BulkDock/SCRATCH/511014/C11618-P94/C11618-P94.minimised.mol

>  <scratch_subdir>  (639) 
/opt/xchem-fragalysis-2/maxwin/BulkDock/SCRATCH/511014/C11618-P94

>  <fragmenstein_runtime>  (639) 
9.534679412841797

>  <fragmenstein_outcome>  (639) 
too moved

>  <fragmenstein_mode>  (639) 
expansion

>  <fragmenstein_error>  (639) 


$$$$
C11618-P59
     RDKit          3D

 30 32  0  0  0  0  0  0  0  0999 V2000
   -8.8831  -17.2972   27.7085 O   0  0  0  0  0  0  0  0  0  0  0  0
   -8.3198  -18.1979   28.3507 C   0  0  0  0  0  0  0  0  0  0  0  0
   -6.5327  -17.6427   28.7698 O   0  0  0  0  0  0  0  0  0  0  0  0
   -4.9517  -16.4096   29.0905 C   0  0  0  0  0  0  0  0  0  0  0  0
   -3.2123  -15.8347   28.2527 C   0  0  0  0  0  0  0  0  0  0  0  0
   -2.2662  -14.8219   28.5908 C   0  0  0  0  0  0  0  0  0  0  0  0
   -1.2055  -14.9379   27.6979 C   0  0  0  0  0  0  0  0  0  0  0  0
   -1.3224  -16.0320   26.9506 N   0  0  0  0  0  0  0  0  0  0  0  0
   -2.4836  -16.6906   27.3845 O   0  0  0  0  0  0  0  0  0  0  0  0
   -9.5663  -19.8576   28.4545 C   0  0  0  0  0  0  0  0  0  0  0  0
  -10.4328  -21.1069   27.7991 C   0  0  0  0  0  0  0  0  0  0  0  0
  -11.6253  -21.8874   27.6516 C   0  0  0  0  0  0  0  0  0  0  0  0
  -12.0914  -22.2181   28.8367 C   0  0  0  0  0  0  0  0  0  0  0  0
  -11.5605  -21.5848   29.8787 C   0  0  0  0  0  0  0  0  0  0  0  0
  -11.8519  -21.2622   31.1910 N   0  0  0  0  0  0  0  0  0  0  0  0
  -11.5247  -22.2678   32.7582 C   0  0  0  0  0  0  0  0  0  0  0  0
  -12.2180  -22.0264   35.1067 C   0  0  0  0  0  0  0  0  0  0  0  0
  -13.4404  -22.6353   35.6737 F   0  0  0  0  0  0  0  0  0  0  0  0
  -12.0803  -20.7160   35.8414 F   0  0  0  0  0  0  0  0  0  0  0  0
  -10.4640  -21.3218   31.6817 N   0  0  0  0  0  0  0  0  0  0  0  0
  -10.6345  -20.6382   29.8785 C   0  0  0  0  0  0  0  0  0  0  0  0
   -4.8652  -16.3468   30.1646 H   0  0  0  0  0  0  0  0  0  0  0  0
   -4.4219  -17.0954   28.3195 H   0  0  0  0  0  0  0  0  0  0  0  0
   -2.4353  -14.0928   29.3578 H   0  0  0  0  0  0  0  0  0  0  0  0
   -0.3374  -14.3085   27.5746 H   0  0  0  0  0  0  0  0  0  0  0  0
   -9.8615  -22.0554   28.2283 H   0  0  0  0  0  0  0  0  0  0  0  0
  -11.8291  -22.5232   26.7985 H   0  0  0  0  0  0  0  0  0  0  0  0
  -12.6155  -23.1126   28.9654 H   0  0  0  0  0  0  0  0  0  0  0  0
  -12.8142  -21.0644   31.3120 H   0  0  0  0  0  0  0  0  0  0  0  0
  -11.6978  -22.6432   35.9439 H   0  0  0  0  0  0  0  0  0  0  0  0
  1  2  2  0
  2  3  1  0
  3  4  1  0
  4  5  1  0
  5  6  2  0
  6  7  1  0
  7  8  2  0
  8  9  1  0
  2 10  1  0
 10 11  2  0
 11 12  1  0
 12 13  2  0
 13 14  1  0
 14 15  1  0
 15 16  1  0
 16 17  1  0
 17 18  1  0
 17 19  1  0
 16 20  2  0
 20 21  1  0
  9  5  1  0
 21 10  1  0
 21 14  2  0
  4 22  1  0
  4 23  1  0
  6 24  1  0
  7 25  1  0
 11 26  1  0
 12 27  1  0
 13 28  1  0
 15 29  1  0
 17 30  1  0
M  END
>  <Energy>  (640) 
1707.6445014510043

>  <compound_id>  (640) 
11618

>  <target_id>  (640) 
1

>  <reference_id>  (640) 
59

>  <inspiration_ids>  (640) 
[94, 59]

>  <energy_score>  (640) 
1631.4449557137666

>  <distance_score>  (640) 
10.318284705690955

>  <path>  (640) 
/opt/xchem-fragalysis-2/maxwin/BulkDock/SCRATCH/511014/C11618-P59/C11618-P59.minimised.mol

>  <scratch_subdir>  (640) 
/opt/xchem-fragalysis-2/maxwin/BulkDock/SCRATCH/511014/C11618-P59

>  <fragmenstein_runtime>  (640) 
13.1465585231781

>  <fragmenstein_outcome>  (640) 
too moved

>  <fragmenstein_mode>  (640) 
expansion

>  <fragmenstein_error>  (640) 


$$$$
C11621-P94
     RDKit          3D

 41 44  0  0  0  0  0  0  0  0999 V2000
   -8.9616  -18.5041   33.3931 O   0  0  0  0  0  0  0  0  0  0  0  0
   -7.7968  -18.3018   33.6060 C   0  0  0  0  0  0  0  0  0  0  0  0
   -7.1332  -19.6144   34.0808 C   0  0  0  0  0  0  0  0  0  0  0  0
   -8.0577  -20.9830   33.1876 N   0  0  0  0  0  0  0  0  0  0  0  0
   -7.8376  -22.3233   33.5491 C   0  0  0  0  0  0  0  0  0  0  0  0
   -8.6221  -23.3060   33.1064 N   0  0  0  0  0  0  0  0  0  0  0  0
   -9.8104  -22.7645   32.5799 C   0  0  0  0  0  0  0  0  0  0  0  0
  -10.9846  -23.4592   32.3045 C   0  0  0  0  0  0  0  0  0  0  0  0
  -12.1356  -22.7173   32.3338 C   0  0  0  0  0  0  0  0  0  0  0  0
  -12.0739  -21.3613   32.5918 C   0  0  0  0  0  0  0  0  0  0  0  0
  -10.8803  -20.5905   32.5837 C   0  0  0  0  0  0  0  0  0  0  0  0
   -9.6240  -21.2134   32.3741 C   0  0  0  0  0  0  0  0  0  0  0  0
   -6.8377  -16.8836   33.3156 N   0  0  0  0  0  0  0  0  0  0  0  0
   -6.1929  -16.9563   31.9455 C   0  0  0  0  0  0  0  0  0  0  0  0
   -5.6732  -15.8922   30.4083 C   0  0  0  0  0  0  0  0  0  0  0  0
   -6.0387  -14.3196   30.2016 C   0  0  0  0  0  0  0  0  0  0  0  0
   -6.7047  -13.6897   31.3777 C   0  0  0  0  0  0  0  0  0  0  0  0
   -5.5647  -11.9711   31.3569 C   0  0  0  0  0  0  0  0  0  0  0  0
   -5.3752  -10.6753   32.1044 C   0  0  0  0  0  0  0  0  0  0  0  0
   -4.1416   -9.8643   32.0890 C   0  0  0  0  0  0  0  0  0  0  0  0
   -3.2243  -10.5008   31.3218 N   0  0  0  0  0  0  0  0  0  0  0  0
   -4.2334  -11.8283   30.5987 O   0  0  0  0  0  0  0  0  0  0  0  0
   -7.4214  -15.1827   32.6955 C   0  0  0  0  0  0  0  0  0  0  0  0
   -6.1865  -19.8355   33.5763 H   0  0  0  0  0  0  0  0  0  0  0  0
   -7.1739  -19.9916   35.0907 H   0  0  0  0  0  0  0  0  0  0  0  0
   -7.2635  -22.3963   34.4612 H   0  0  0  0  0  0  0  0  0  0  0  0
  -11.0168  -24.5424   32.3381 H   0  0  0  0  0  0  0  0  0  0  0  0
  -13.0895  -23.2239   32.3847 H   0  0  0  0  0  0  0  0  0  0  0  0
  -12.9972  -20.9196   32.9565 H   0  0  0  0  0  0  0  0  0  0  0  0
  -10.9221  -19.6514   33.1226 H   0  0  0  0  0  0  0  0  0  0  0  0
   -6.6310  -17.8545   31.5447 H   0  0  0  0  0  0  0  0  0  0  0  0
   -5.2222  -17.1352   32.4095 H   0  0  0  0  0  0  0  0  0  0  0  0
   -5.8479  -16.4535   29.4823 H   0  0  0  0  0  0  0  0  0  0  0  0
   -4.6471  -16.0080   30.0508 H   0  0  0  0  0  0  0  0  0  0  0  0
   -6.5460  -14.1217   29.2474 H   0  0  0  0  0  0  0  0  0  0  0  0
   -5.1288  -13.7718   30.0304 H   0  0  0  0  0  0  0  0  0  0  0  0
   -7.0444  -12.8842   32.0141 H   0  0  0  0  0  0  0  0  0  0  0  0
   -5.8873  -10.4051   32.9934 H   0  0  0  0  0  0  0  0  0  0  0  0
   -3.8716   -8.9917   32.6636 H   0  0  0  0  0  0  0  0  0  0  0  0
   -7.2229  -14.8754   33.7301 H   0  0  0  0  0  0  0  0  0  0  0  0
   -8.4976  -15.2868   32.5413 H   0  0  0  0  0  0  0  0  0  0  0  0
  1  2  2  0
  2  3  1  0
  3  4  1  0
  4  5  1  0
  5  6  2  0
  6  7  1  0
  7  8  2  0
  8  9  1  0
  9 10  2  0
 10 11  1  0
 11 12  2  0
  2 13  1  0
 13 14  1  0
 14 15  1  0
 15 16  1  0
 16 17  1  0
 17 18  1  0
 18 19  2  0
 19 20  1  0
 20 21  2  0
 21 22  1  0
 17 23  1  0
 12  4  1  0
 23 13  1  0
 12  7  1  0
 22 18  1  0
  3 24  1  0
  3 25  1  0
  5 26  1  0
  8 27  1  0
  9 28  1  0
 10 29  1  0
 11 30  1  0
 14 31  1  0
 14 32  1  0
 15 33  1  0
 15 34  1  0
 16 35  1  0
 16 36  1  0
 17 37  1  0
 19 38  1  0
 20 39  1  0
 23 40  1  0
 23 41  1  0
M  END
>  <Energy>  (641) 
738.81023958113735

>  <compound_id>  (641) 
11621

>  <target_id>  (641) 
1

>  <reference_id>  (641) 
94

>  <inspiration_ids>  (641) 
[94, 59]

>  <energy_score>  (641) 
667.1798238834996

>  <distance_score>  (641) 
7.963921641742919

>  <path>  (641) 
/opt/xchem-fragalysis-2/maxwin/BulkDock/SCRATCH/511014/C11621-P94/C11621-P94.minimised.mol

>  <scratch_subdir>  (641) 
/opt/xchem-fragalysis-2/maxwin/BulkDock/SCRATCH/511014/C11621-P94

>  <fragmenstein_runtime>  (641) 
20.727041482925415

>  <fragmenstein_outcome>  (641) 
too moved

>  <fragmenstein_mode>  (641) 
expansion

>  <fragmenstein_error>  (641) 


$$$$
C11621-P59
     RDKit          3D

 41 44  0  0  0  0  0  0  0  0999 V2000
   -7.5652  -13.8025   40.2436 O   0  0  0  0  0  0  0  0  0  0  0  0
   -8.5994  -13.3394   39.8306 C   0  0  0  0  0  0  0  0  0  0  0  0
   -9.7343  -14.3018   39.3183 C   0  0  0  0  0  0  0  0  0  0  0  0
   -9.3320  -15.6087   38.7362 N   0  0  0  0  0  0  0  0  0  0  0  0
   -8.4857  -16.5230   39.3157 C   0  0  0  0  0  0  0  0  0  0  0  0
   -8.3453  -17.6159   38.5965 N   0  0  0  0  0  0  0  0  0  0  0  0
   -9.1574  -17.4421   37.5106 C   0  0  0  0  0  0  0  0  0  0  0  0
   -9.3472  -18.2866   36.4053 C   0  0  0  0  0  0  0  0  0  0  0  0
  -10.2088  -17.8701   35.3942 C   0  0  0  0  0  0  0  0  0  0  0  0
  -10.9451  -16.6961   35.5318 C   0  0  0  0  0  0  0  0  0  0  0  0
  -10.7784  -15.8472   36.6310 C   0  0  0  0  0  0  0  0  0  0  0  0
   -9.8351  -16.2206   37.5934 C   0  0  0  0  0  0  0  0  0  0  0  0
   -9.0384  -11.9407   39.7163 N   0  0  0  0  0  0  0  0  0  0  0  0
   -8.6702  -11.3961   38.3934 C   0  0  0  0  0  0  0  0  0  0  0  0
   -7.2145  -11.6402   37.9874 C   0  0  0  0  0  0  0  0  0  0  0  0
   -6.2257  -11.1817   39.0378 C   0  0  0  0  0  0  0  0  0  0  0  0
   -6.8813  -10.0628   39.8010 C   0  0  0  0  0  0  0  0  0  0  0  0
   -6.7276   -8.7342   39.0519 C   0  0  0  0  0  0  0  0  0  0  0  0
   -5.6788   -8.1598   38.3507 C   0  0  0  0  0  0  0  0  0  0  0  0
   -6.1463   -6.8882   37.9797 C   0  0  0  0  0  0  0  0  0  0  0  0
   -7.3948   -6.6807   38.3956 N   0  0  0  0  0  0  0  0  0  0  0  0
   -7.7557   -7.8366   39.0769 O   0  0  0  0  0  0  0  0  0  0  0  0
   -8.3406  -10.5777   40.2104 C   0  0  0  0  0  0  0  0  0  0  0  0
  -10.3395  -13.7939   38.5627 H   0  0  0  0  0  0  0  0  0  0  0  0
  -10.3756  -14.5474   40.1723 H   0  0  0  0  0  0  0  0  0  0  0  0
   -7.9884  -16.3352   40.2596 H   0  0  0  0  0  0  0  0  0  0  0  0
   -8.7821  -19.2072   36.3155 H   0  0  0  0  0  0  0  0  0  0  0  0
  -10.2770  -18.4485   34.4822 H   0  0  0  0  0  0  0  0  0  0  0  0
  -11.6448  -16.4010   34.7566 H   0  0  0  0  0  0  0  0  0  0  0  0
  -11.3313  -14.9173   36.6937 H   0  0  0  0  0  0  0  0  0  0  0  0
   -9.0683  -10.3899   38.2057 H   0  0  0  0  0  0  0  0  0  0  0  0
   -9.2686  -11.9853   37.6868 H   0  0  0  0  0  0  0  0  0  0  0  0
   -7.0101  -11.1412   37.0390 H   0  0  0  0  0  0  0  0  0  0  0  0
   -7.0836  -12.7107   37.8403 H   0  0  0  0  0  0  0  0  0  0  0  0
   -5.2683  -10.8907   38.6015 H   0  0  0  0  0  0  0  0  0  0  0  0
   -5.9926  -12.0036   39.7229 H   0  0  0  0  0  0  0  0  0  0  0  0
   -6.3279   -9.9076   40.7384 H   0  0  0  0  0  0  0  0  0  0  0  0
   -4.7067   -8.5882   38.1591 H   0  0  0  0  0  0  0  0  0  0  0  0
   -5.6406   -6.1018   37.4442 H   0  0  0  0  0  0  0  0  0  0  0  0
   -9.0943   -9.7761   40.1631 H   0  0  0  0  0  0  0  0  0  0  0  0
   -8.2555  -10.7937   41.2864 H   0  0  0  0  0  0  0  0  0  0  0  0
  1  2  2  0
  2  3  1  0
  3  4  1  0
  4  5  1  0
  5  6  2  0
  6  7  1  0
  7  8  2  0
  8  9  1  0
  9 10  2  0
 10 11  1  0
 11 12  2  0
  2 13  1  0
 13 14  1  0
 14 15  1  0
 15 16  1  0
 16 17  1  0
 17 18  1  0
 18 19  2  0
 19 20  1  0
 20 21  2  0
 21 22  1  0
 17 23  1  0
 12  4  1  0
 23 13  1  0
 12  7  1  0
 22 18  1  0
  3 24  1  0
  3 25  1  0
  5 26  1  0
  8 27  1  0
  9 28  1  0
 10 29  1  0
 11 30  1  0
 14 31  1  0
 14 32  1  0
 15 33  1  0
 15 34  1  0
 16 35  1  0
 16 36  1  0
 17 37  1  0
 19 38  1  0
 20 39  1  0
 23 40  1  0
 23 41  1  0
M  END
>  <Energy>  (642) 
114.11828344270138

>  <compound_id>  (642) 
11621

>  <target_id>  (642) 
1

>  <reference_id>  (642) 
59

>  <inspiration_ids>  (642) 
[94, 59]

>  <energy_score>  (642) 
42.48786774506527

>  <distance_score>  (642) 
11.214099190987023

>  <path>  (642) 
/opt/xchem-fragalysis-2/maxwin/BulkDock/SCRATCH/511014/C11621-P59/C11621-P59.minimised.mol

>  <scratch_subdir>  (642) 
/opt/xchem-fragalysis-2/maxwin/BulkDock/SCRATCH/511014/C11621-P59

>  <fragmenstein_runtime>  (642) 
23.56465172767639

>  <fragmenstein_outcome>  (642) 
too moved

>  <fragmenstein_mode>  (642) 
expansion

>  <fragmenstein_error>  (642) 


$$$$
C11622-P94
     RDKit          3D

 35 37  0  0  0  0  0  0  0  0999 V2000
   -6.0475  -14.0609   30.0925 C   0  0  0  0  0  0  0  0  0  0  0  0
   -6.6718  -13.4621   31.2487 N   0  0  0  0  0  0  0  0  0  0  0  0
   -5.9719  -11.7047   31.4040 C   0  0  0  0  0  0  0  0  0  0  0  0
   -6.4329  -10.2926   30.2805 C   0  0  0  0  0  0  0  0  0  0  0  0
   -7.3847   -9.7510   29.4699 C   0  0  0  0  0  0  0  0  0  0  0  0
   -6.6129   -9.1461   28.5383 C   0  0  0  0  0  0  0  0  0  0  0  0
   -5.8084   -8.3484   29.2157 N   0  0  0  0  0  0  0  0  0  0  0  0
   -5.8557   -8.9630   30.5368 O   0  0  0  0  0  0  0  0  0  0  0  0
   -7.7512  -14.5136   32.2978 C   0  0  0  0  0  0  0  0  0  0  0  0
   -7.4209  -16.0416   33.2423 C   0  0  0  0  0  0  0  0  0  0  0  0
   -6.6800  -17.1063   32.8568 N   0  0  0  0  0  0  0  0  0  0  0  0
   -6.9139  -18.1369   33.7581 C   0  0  0  0  0  0  0  0  0  0  0  0
   -6.5668  -19.5185   33.8296 C   0  0  0  0  0  0  0  0  0  0  0  0
   -6.5064  -20.1453   35.0596 C   0  0  0  0  0  0  0  0  0  0  0  0
   -6.8143  -19.4189   36.1848 C   0  0  0  0  0  0  0  0  0  0  0  0
   -7.4100  -18.1407   36.1189 C   0  0  0  0  0  0  0  0  0  0  0  0
   -7.4362  -17.5534   34.8772 C   0  0  0  0  0  0  0  0  0  0  0  0
   -8.1670  -16.5275   34.3286 N   0  0  0  0  0  0  0  0  0  0  0  0
   -9.6083  -16.6928   34.4988 C   0  0  0  0  0  0  0  0  0  0  0  0
  -10.3932  -15.7441   33.9447 F   0  0  0  0  0  0  0  0  0  0  0  0
   -9.9066  -16.7231   35.8352 F   0  0  0  0  0  0  0  0  0  0  0  0
   -5.1377  -13.4896   29.9419 H   0  0  0  0  0  0  0  0  0  0  0  0
   -6.6165  -13.9613   29.1615 H   0  0  0  0  0  0  0  0  0  0  0  0
   -5.7785  -15.1038   30.2296 H   0  0  0  0  0  0  0  0  0  0  0  0
   -5.9112  -11.2159   32.3439 H   0  0  0  0  0  0  0  0  0  0  0  0
   -4.9794  -11.8728   30.9789 H   0  0  0  0  0  0  0  0  0  0  0  0
   -8.4644   -9.8288   29.4147 H   0  0  0  0  0  0  0  0  0  0  0  0
   -6.6754   -9.1187   27.4503 H   0  0  0  0  0  0  0  0  0  0  0  0
   -8.7724  -14.6082   31.9915 H   0  0  0  0  0  0  0  0  0  0  0  0
   -7.6884  -13.7359   33.0264 H   0  0  0  0  0  0  0  0  0  0  0  0
   -6.0661  -20.0184   33.0027 H   0  0  0  0  0  0  0  0  0  0  0  0
   -6.1696  -21.1573   35.1739 H   0  0  0  0  0  0  0  0  0  0  0  0
   -6.6860  -19.9038   37.1521 H   0  0  0  0  0  0  0  0  0  0  0  0
   -7.8162  -17.6582   36.9989 H   0  0  0  0  0  0  0  0  0  0  0  0
   -9.8646  -17.6757   34.1147 H   0  0  0  0  0  0  0  0  0  0  0  0
  1  2  1  0
  2  3  1  0
  3  4  1  0
  4  5  2  0
  5  6  1  0
  6  7  2  0
  7  8  1  0
  2  9  1  0
  9 10  1  0
 10 11  2  0
 11 12  1  0
 12 13  2  0
 13 14  1  0
 14 15  2  0
 15 16  1  0
 16 17  2  0
 17 18  1  0
 18 19  1  0
 19 20  1  0
 19 21  1  0
  8  4  1  0
 18 10  1  0
 17 12  1  0
  1 22  1  0
  1 23  1  0
  1 24  1  0
  3 25  1  0
  3 26  1  0
  5 27  1  0
  6 28  1  0
  9 29  1  0
  9 30  1  0
 13 31  1  0
 14 32  1  0
 15 33  1  0
 16 34  1  0
 19 35  1  0
M  END
>  <Energy>  (643) 
328.7115008894416

>  <compound_id>  (643) 
11622

>  <target_id>  (643) 
1

>  <reference_id>  (643) 
94

>  <inspiration_ids>  (643) 
[94, 59]

>  <energy_score>  (643) 
259.1746480001908

>  <distance_score>  (643) 
9.44852502858068

>  <path>  (643) 
/opt/xchem-fragalysis-2/maxwin/BulkDock/SCRATCH/511014/C11622-P94/C11622-P94.minimised.mol

>  <scratch_subdir>  (643) 
/opt/xchem-fragalysis-2/maxwin/BulkDock/SCRATCH/511014/C11622-P94

>  <fragmenstein_runtime>  (643) 
11.521896123886108

>  <fragmenstein_outcome>  (643) 
too moved

>  <fragmenstein_mode>  (643) 
expansion

>  <fragmenstein_error>  (643) 


$$$$
C11622-P59
     RDKit          3D

 35 37  0  0  0  0  0  0  0  0999 V2000
   -7.1332   -9.5794   29.3829 C   0  0  0  0  0  0  0  0  0  0  0  0
   -6.5292   -9.5090   30.6733 N   0  0  0  0  0  0  0  0  0  0  0  0
   -6.3505   -7.4967   31.4953 C   0  0  0  0  0  0  0  0  0  0  0  0
   -6.4468   -6.0019   29.9799 C   0  0  0  0  0  0  0  0  0  0  0  0
   -6.8481   -5.2967   28.6527 C   0  0  0  0  0  0  0  0  0  0  0  0
   -7.1301   -3.9472   28.8342 C   0  0  0  0  0  0  0  0  0  0  0  0
   -6.1386   -3.7162   29.5990 N   0  0  0  0  0  0  0  0  0  0  0  0
   -5.7355   -4.8611   30.0672 O   0  0  0  0  0  0  0  0  0  0  0  0
   -6.7977  -11.5468   31.5033 C   0  0  0  0  0  0  0  0  0  0  0  0
   -7.0812  -13.6605   31.5950 C   0  0  0  0  0  0  0  0  0  0  0  0
   -6.3737  -15.2027   31.8389 N   0  0  0  0  0  0  0  0  0  0  0  0
   -7.3291  -16.7638   32.5749 C   0  0  0  0  0  0  0  0  0  0  0  0
   -7.4420  -18.2224   32.8826 C   0  0  0  0  0  0  0  0  0  0  0  0
   -8.5179  -18.7744   33.8845 C   0  0  0  0  0  0  0  0  0  0  0  0
   -9.5454  -18.0296   34.3856 C   0  0  0  0  0  0  0  0  0  0  0  0
   -9.6505  -16.7787   33.8107 C   0  0  0  0  0  0  0  0  0  0  0  0
   -8.7168  -16.1726   32.5914 C   0  0  0  0  0  0  0  0  0  0  0  0
   -8.4954  -14.5779   32.1483 N   0  0  0  0  0  0  0  0  0  0  0  0
   -9.4868  -14.0830   33.0101 C   0  0  0  0  0  0  0  0  0  0  0  0
   -9.1552  -12.8468   33.2435 F   0  0  0  0  0  0  0  0  0  0  0  0
  -10.7578  -14.4938   32.9943 F   0  0  0  0  0  0  0  0  0  0  0  0
   -6.7134  -10.5361   29.3394 H   0  0  0  0  0  0  0  0  0  0  0  0
   -8.2218   -9.5094   29.3480 H   0  0  0  0  0  0  0  0  0  0  0  0
   -6.7101   -8.9548   28.6217 H   0  0  0  0  0  0  0  0  0  0  0  0
   -6.7527   -7.2712   32.5596 H   0  0  0  0  0  0  0  0  0  0  0  0
   -7.2927   -6.8769   31.7652 H   0  0  0  0  0  0  0  0  0  0  0  0
   -7.3959   -5.4800   27.7561 H   0  0  0  0  0  0  0  0  0  0  0  0
   -7.7174   -3.2078   28.3083 H   0  0  0  0  0  0  0  0  0  0  0  0
   -7.8482  -11.4419   31.9093 H   0  0  0  0  0  0  0  0  0  0  0  0
   -6.2467  -11.4683   32.4985 H   0  0  0  0  0  0  0  0  0  0  0  0
   -6.6695  -18.9678   32.8381 H   0  0  0  0  0  0  0  0  0  0  0  0
   -8.3444  -19.7810   34.2794 H   0  0  0  0  0  0  0  0  0  0  0  0
  -10.2184  -18.3754   35.1565 H   0  0  0  0  0  0  0  0  0  0  0  0
  -10.4656  -16.1664   34.1975 H   0  0  0  0  0  0  0  0  0  0  0  0
   -9.3472  -14.6106   33.8751 H   0  0  0  0  0  0  0  0  0  0  0  0
  1  2  1  0
  2  3  1  0
  3  4  1  0
  4  5  2  0
  5  6  1  0
  6  7  2  0
  7  8  1  0
  2  9  1  0
  9 10  1  0
 10 11  2  0
 11 12  1  0
 12 13  2  0
 13 14  1  0
 14 15  2  0
 15 16  1  0
 16 17  2  0
 17 18  1  0
 18 19  1  0
 19 20  1  0
 19 21  1  0
  8  4  1  0
 18 10  1  0
 17 12  1  0
  1 22  1  0
  1 23  1  0
  1 24  1  0
  3 25  1  0
  3 26  1  0
  5 27  1  0
  6 28  1  0
  9 29  1  0
  9 30  1  0
 13 31  1  0
 14 32  1  0
 15 33  1  0
 16 34  1  0
 19 35  1  0
M  END
>  <Energy>  (644) 
1294.8581132450695

>  <compound_id>  (644) 
11622

>  <target_id>  (644) 
1

>  <reference_id>  (644) 
59

>  <inspiration_ids>  (644) 
[94, 59]

>  <energy_score>  (644) 
1225.3212603558268

>  <distance_score>  (644) 
8.704505062737674

>  <path>  (644) 
/opt/xchem-fragalysis-2/maxwin/BulkDock/SCRATCH/511014/C11622-P59/C11622-P59.minimised.mol

>  <scratch_subdir>  (644) 
/opt/xchem-fragalysis-2/maxwin/BulkDock/SCRATCH/511014/C11622-P59

>  <fragmenstein_runtime>  (644) 
15.57821011543274

>  <fragmenstein_outcome>  (644) 
too moved

>  <fragmenstein_mode>  (644) 
expansion

>  <fragmenstein_error>  (644) 


$$$$
C11623-P94
     RDKit          3D

 34 36  0  0  0  0  0  0  0  0999 V2000
   -6.0942  -14.0900   30.1358 C   0  0  0  0  0  0  0  0  0  0  0  0
   -6.7232  -13.4282   31.4129 C   0  0  0  0  0  0  0  0  0  0  0  0
   -5.8893  -12.0858   31.4371 N   0  0  0  0  0  0  0  0  0  0  0  0
   -5.6601  -10.8229   32.2994 O   0  0  0  0  0  0  0  0  0  0  0  0
   -4.4983   -9.5558   32.3040 C   0  0  0  0  0  0  0  0  0  0  0  0
   -2.9845   -9.3283   32.4586 C   0  0  0  0  0  0  0  0  0  0  0  0
   -1.7879   -9.5435   31.8009 C   0  0  0  0  0  0  0  0  0  0  0  0
   -0.8381   -8.7179   32.4358 C   0  0  0  0  0  0  0  0  0  0  0  0
   -1.3815   -8.0342   33.4350 N   0  0  0  0  0  0  0  0  0  0  0  0
   -2.6891   -8.4530   33.4883 O   0  0  0  0  0  0  0  0  0  0  0  0
   -7.9147  -14.5870   32.3364 C   0  0  0  0  0  0  0  0  0  0  0  0
   -9.2932  -14.4937   32.3127 N   0  0  0  0  0  0  0  0  0  0  0  0
  -10.0261  -15.4027   33.1864 C   0  0  0  0  0  0  0  0  0  0  0  0
  -11.3311  -15.3019   33.7672 C   0  0  0  0  0  0  0  0  0  0  0  0
  -11.6619  -16.0941   34.8814 C   0  0  0  0  0  0  0  0  0  0  0  0
  -10.7148  -16.9467   35.4336 C   0  0  0  0  0  0  0  0  0  0  0  0
   -9.4263  -17.0283   34.8896 C   0  0  0  0  0  0  0  0  0  0  0  0
   -9.1146  -16.2815   33.7363 C   0  0  0  0  0  0  0  0  0  0  0  0
   -7.8545  -15.9119   33.1552 N   0  0  0  0  0  0  0  0  0  0  0  0
   -6.7593  -16.6754   33.6500 C   0  0  0  0  0  0  0  0  0  0  0  0
   -7.0331  -18.0101   33.6100 F   0  0  0  0  0  0  0  0  0  0  0  0
   -6.6472  -16.3692   34.9672 F   0  0  0  0  0  0  0  0  0  0  0  0
   -5.8082  -15.1258   30.2722 H   0  0  0  0  0  0  0  0  0  0  0  0
   -5.1874  -13.5056   29.9645 H   0  0  0  0  0  0  0  0  0  0  0  0
   -6.6628  -13.9591   29.2114 H   0  0  0  0  0  0  0  0  0  0  0  0
   -4.8402   -8.7864   31.6180 H   0  0  0  0  0  0  0  0  0  0  0  0
   -4.7896   -9.2046   33.3124 H   0  0  0  0  0  0  0  0  0  0  0  0
   -1.5947  -10.1754   30.9484 H   0  0  0  0  0  0  0  0  0  0  0  0
    0.2118   -8.5843   32.2124 H   0  0  0  0  0  0  0  0  0  0  0  0
  -12.0754  -14.6348   33.3601 H   0  0  0  0  0  0  0  0  0  0  0  0
  -12.6560  -16.0324   35.3113 H   0  0  0  0  0  0  0  0  0  0  0  0
  -10.9591  -17.5214   36.3226 H   0  0  0  0  0  0  0  0  0  0  0  0
   -8.6410  -17.5363   35.4376 H   0  0  0  0  0  0  0  0  0  0  0  0
   -5.8372  -16.4899   33.1069 H   0  0  0  0  0  0  0  0  0  0  0  0
  1  2  1  0
  2  3  2  3
  3  4  1  0
  4  5  1  0
  5  6  1  0
  6  7  2  0
  7  8  1  0
  8  9  2  0
  9 10  1  0
  2 11  1  0
 11 12  2  0
 12 13  1  0
 13 14  2  0
 14 15  1  0
 15 16  2  0
 16 17  1  0
 17 18  2  0
 18 19  1  0
 19 20  1  0
 20 21  1  0
 20 22  1  0
 10  6  1  0
 19 11  1  0
 18 13  1  0
  1 23  1  0
  1 24  1  0
  1 25  1  0
  5 26  1  0
  5 27  1  0
  7 28  1  0
  8 29  1  0
 14 30  1  0
 15 31  1  0
 16 32  1  0
 17 33  1  0
 20 34  1  0
M  END
>  <Energy>  (645) 
379.87679319695383

>  <compound_id>  (645) 
11623

>  <target_id>  (645) 
1

>  <reference_id>  (645) 
94

>  <inspiration_ids>  (645) 
[94, 59]

>  <energy_score>  (645) 
266.16092061020186

>  <distance_score>  (645) 
9.357455534606773

>  <path>  (645) 
/opt/xchem-fragalysis-2/maxwin/BulkDock/SCRATCH/511014/C11623-P94/C11623-P94.minimised.mol

>  <scratch_subdir>  (645) 
/opt/xchem-fragalysis-2/maxwin/BulkDock/SCRATCH/511014/C11623-P94

>  <fragmenstein_runtime>  (645) 
10.586106538772583

>  <fragmenstein_outcome>  (645) 
too moved

>  <fragmenstein_mode>  (645) 
expansion

>  <fragmenstein_error>  (645) 


$$$$
C11623-P59
     RDKit          3D

 34 36  0  0  0  0  0  0  0  0999 V2000
  -13.7906   -9.5845   31.2614 C   0  0  0  0  0  0  0  0  0  0  0  0
  -13.6740   -9.9428   29.8047 C   0  0  0  0  0  0  0  0  0  0  0  0
  -12.9383   -9.2409   28.9642 N   0  0  0  0  0  0  0  0  0  0  0  0
  -12.0889   -8.2466   29.5672 O   0  0  0  0  0  0  0  0  0  0  0  0
  -11.4973   -7.3735   28.5423 C   0  0  0  0  0  0  0  0  0  0  0  0
  -10.0089   -7.2934   28.6277 C   0  0  0  0  0  0  0  0  0  0  0  0
   -9.0185   -8.0508   29.1997 C   0  0  0  0  0  0  0  0  0  0  0  0
   -7.8175   -7.5084   28.7094 C   0  0  0  0  0  0  0  0  0  0  0  0
   -8.0289   -6.4248   27.9591 N   0  0  0  0  0  0  0  0  0  0  0  0
   -9.4123   -6.2812   27.9153 O   0  0  0  0  0  0  0  0  0  0  0  0
  -14.3171  -11.2064   29.3039 C   0  0  0  0  0  0  0  0  0  0  0  0
  -14.4086  -11.4124   27.9923 N   0  0  0  0  0  0  0  0  0  0  0  0
  -14.2049  -12.7476   27.7992 C   0  0  0  0  0  0  0  0  0  0  0  0
  -13.9005  -13.4449   26.6227 C   0  0  0  0  0  0  0  0  0  0  0  0
  -13.4754  -14.7629   26.7269 C   0  0  0  0  0  0  0  0  0  0  0  0
  -13.3881  -15.3504   27.9808 C   0  0  0  0  0  0  0  0  0  0  0  0
  -13.7914  -14.7029   29.1490 C   0  0  0  0  0  0  0  0  0  0  0  0
  -14.2086  -13.3959   29.0179 C   0  0  0  0  0  0  0  0  0  0  0  0
  -14.6000  -12.4307   29.9231 N   0  0  0  0  0  0  0  0  0  0  0  0
  -15.0905  -12.7243   31.2638 C   0  0  0  0  0  0  0  0  0  0  0  0
  -15.1670  -14.0623   31.5433 F   0  0  0  0  0  0  0  0  0  0  0  0
  -14.3047  -12.1848   32.2322 F   0  0  0  0  0  0  0  0  0  0  0  0
  -14.7600   -9.8983   31.6555 H   0  0  0  0  0  0  0  0  0  0  0  0
  -13.7162   -8.5023   31.3997 H   0  0  0  0  0  0  0  0  0  0  0  0
  -12.9864  -10.0668   31.8219 H   0  0  0  0  0  0  0  0  0  0  0  0
  -11.7860   -7.7263   27.5454 H   0  0  0  0  0  0  0  0  0  0  0  0
  -11.9336   -6.3811   28.6941 H   0  0  0  0  0  0  0  0  0  0  0  0
   -9.1578   -8.9229   29.8185 H   0  0  0  0  0  0  0  0  0  0  0  0
   -6.8086   -7.8541   28.8725 H   0  0  0  0  0  0  0  0  0  0  0  0
  -13.9045  -12.9277   25.6695 H   0  0  0  0  0  0  0  0  0  0  0  0
  -13.1651  -15.2901   25.8316 H   0  0  0  0  0  0  0  0  0  0  0  0
  -12.9661  -16.3371   28.0960 H   0  0  0  0  0  0  0  0  0  0  0  0
  -13.6732  -15.1655   30.1190 H   0  0  0  0  0  0  0  0  0  0  0  0
  -16.0946  -12.2983   31.3451 H   0  0  0  0  0  0  0  0  0  0  0  0
  1  2  1  0
  2  3  2  3
  3  4  1  0
  4  5  1  0
  5  6  1  0
  6  7  2  0
  7  8  1  0
  8  9  2  0
  9 10  1  0
  2 11  1  0
 11 12  2  0
 12 13  1  0
 13 14  2  0
 14 15  1  0
 15 16  2  0
 16 17  1  0
 17 18  2  0
 18 19  1  0
 19 20  1  0
 20 21  1  0
 20 22  1  0
 10  6  1  0
 19 11  1  0
 18 13  1  0
  1 23  1  0
  1 24  1  0
  1 25  1  0
  5 26  1  0
  5 27  1  0
  7 28  1  0
  8 29  1  0
 14 30  1  0
 15 31  1  0
 16 32  1  0
 17 33  1  0
 20 34  1  0
M  END
>  <Energy>  (646) 
89.933545456929551

>  <compound_id>  (646) 
11623

>  <target_id>  (646) 
1

>  <reference_id>  (646) 
59

>  <inspiration_ids>  (646) 
[94, 59]

>  <energy_score>  (646) 
-23.782327129828445

>  <distance_score>  (646) 
11.306515691893319

>  <path>  (646) 
/opt/xchem-fragalysis-2/maxwin/BulkDock/SCRATCH/511014/C11623-P59/C11623-P59.minimised.mol

>  <scratch_subdir>  (646) 
/opt/xchem-fragalysis-2/maxwin/BulkDock/SCRATCH/511014/C11623-P59

>  <fragmenstein_runtime>  (646) 
15.441096782684326

>  <fragmenstein_outcome>  (646) 
too moved

>  <fragmenstein_mode>  (646) 
expansion

>  <fragmenstein_error>  (646) 


$$$$
C11627-P94
     RDKit          3D

 41 44  0  0  0  0  0  0  0  0999 V2000
   -6.6985  -17.7757   33.9530 O   0  0  0  0  0  0  0  0  0  0  0  0
   -6.6041  -18.5157   32.9828 C   0  0  0  0  0  0  0  0  0  0  0  0
   -7.2703  -20.3221   33.4309 C   0  0  0  0  0  0  0  0  0  0  0  0
   -8.4607  -21.6047   32.8438 N   0  0  0  0  0  0  0  0  0  0  0  0
   -9.0451  -23.1407   33.3200 C   0  0  0  0  0  0  0  0  0  0  0  0
  -11.0384  -23.1921   33.6704 C   0  0  0  0  0  0  0  0  0  0  0  0
  -11.4337  -24.6825   33.7600 C   0  0  0  0  0  0  0  0  0  0  0  0
  -11.9467  -23.6388   34.6617 C   0  0  0  0  0  0  0  0  0  0  0  0
   -9.0039  -24.0215   32.3522 N   0  0  0  0  0  0  0  0  0  0  0  0
  -10.0471  -23.4115   31.7087 C   0  0  0  0  0  0  0  0  0  0  0  0
  -10.9664  -23.9555   30.7901 C   0  0  0  0  0  0  0  0  0  0  0  0
  -11.7282  -23.0533   30.0860 C   0  0  0  0  0  0  0  0  0  0  0  0
  -11.7035  -21.6927   30.4029 C   0  0  0  0  0  0  0  0  0  0  0  0
  -10.9494  -21.0919   31.4503 C   0  0  0  0  0  0  0  0  0  0  0  0
   -9.9814  -21.8280   32.0385 C   0  0  0  0  0  0  0  0  0  0  0  0
   -5.9637  -18.1756   31.4675 N   0  0  0  0  0  0  0  0  0  0  0  0
   -5.2972  -16.6192   30.7688 C   0  0  0  0  0  0  0  0  0  0  0  0
   -5.5923  -14.6902   30.1759 C   0  0  0  0  0  0  0  0  0  0  0  0
   -4.1747  -13.3472   29.8581 C   0  0  0  0  0  0  0  0  0  0  0  0
   -2.6259  -13.3271   29.4263 C   0  0  0  0  0  0  0  0  0  0  0  0
   -2.1407  -12.0695   29.3863 C   0  0  0  0  0  0  0  0  0  0  0  0
   -2.9379  -11.4165   30.1878 N   0  0  0  0  0  0  0  0  0  0  0  0
   -4.2821  -12.0502   30.2214 O   0  0  0  0  0  0  0  0  0  0  0  0
   -6.3922  -20.9150   33.2271 H   0  0  0  0  0  0  0  0  0  0  0  0
   -7.6379  -20.1981   34.4132 H   0  0  0  0  0  0  0  0  0  0  0  0
  -11.6300  -22.4423   33.1585 H   0  0  0  0  0  0  0  0  0  0  0  0
  -10.7066  -25.3894   34.1326 H   0  0  0  0  0  0  0  0  0  0  0  0
  -12.0861  -25.0585   32.9863 H   0  0  0  0  0  0  0  0  0  0  0  0
  -11.5769  -23.3951   35.6309 H   0  0  0  0  0  0  0  0  0  0  0  0
  -12.9999  -23.4088   34.5055 H   0  0  0  0  0  0  0  0  0  0  0  0
  -10.9592  -25.0153   30.5696 H   0  0  0  0  0  0  0  0  0  0  0  0
  -12.3348  -23.4063   29.2627 H   0  0  0  0  0  0  0  0  0  0  0  0
  -12.3087  -21.0883   29.7401 H   0  0  0  0  0  0  0  0  0  0  0  0
  -11.0482  -20.1418   31.8904 H   0  0  0  0  0  0  0  0  0  0  0  0
   -6.1064  -18.9757   30.8531 H   0  0  0  0  0  0  0  0  0  0  0  0
   -5.4306  -17.0206   29.7748 H   0  0  0  0  0  0  0  0  0  0  0  0
   -5.7133  -16.3369   31.7321 H   0  0  0  0  0  0  0  0  0  0  0  0
   -6.3259  -14.1824   30.8064 H   0  0  0  0  0  0  0  0  0  0  0  0
   -6.1406  -14.6936   29.2274 H   0  0  0  0  0  0  0  0  0  0  0  0
   -2.0671  -14.2310   29.1460 H   0  0  0  0  0  0  0  0  0  0  0  0
   -1.1959  -11.6595   29.0671 H   0  0  0  0  0  0  0  0  0  0  0  0
  1  2  2  0
  2  3  1  0
  3  4  1  0
  4  5  1  0
  5  6  1  0
  6  7  1  0
  7  8  1  0
  5  9  2  0
  9 10  1  0
 10 11  2  0
 11 12  1  0
 12 13  2  0
 13 14  1  0
 14 15  2  0
  2 16  1  0
 16 17  1  0
 17 18  1  0
 18 19  1  0
 19 20  2  0
 20 21  1  0
 21 22  2  0
 22 23  1  0
 15  4  1  0
 23 19  1  0
  8  6  1  0
 15 10  1  0
  3 24  1  0
  3 25  1  0
  6 26  1  0
  7 27  1  0
  7 28  1  0
  8 29  1  0
  8 30  1  0
 11 31  1  0
 12 32  1  0
 13 33  1  0
 14 34  1  0
 16 35  1  0
 17 36  1  0
 17 37  1  0
 18 38  1  0
 18 39  1  0
 20 40  1  0
 21 41  1  0
M  END
>  <Energy>  (647) 
734.85019433759362

>  <compound_id>  (647) 
11627

>  <target_id>  (647) 
1

>  <reference_id>  (647) 
94

>  <inspiration_ids>  (647) 
[94, 59]

>  <energy_score>  (647) 
679.0793023055473

>  <distance_score>  (647) 
8.403390968748191

>  <path>  (647) 
/opt/xchem-fragalysis-2/maxwin/BulkDock/SCRATCH/511014/C11627-P94/C11627-P94.minimised.mol

>  <scratch_subdir>  (647) 
/opt/xchem-fragalysis-2/maxwin/BulkDock/SCRATCH/511014/C11627-P94

>  <fragmenstein_runtime>  (647) 
20.476531982421875

>  <fragmenstein_outcome>  (647) 
too moved

>  <fragmenstein_mode>  (647) 
expansion

>  <fragmenstein_error>  (647) 


$$$$
C11627-P59
     RDKit          3D

 41 44  0  0  0  0  0  0  0  0999 V2000
   -6.0766  -21.5528   34.0930 O   0  0  0  0  0  0  0  0  0  0  0  0
   -6.7827  -20.7881   33.4795 C   0  0  0  0  0  0  0  0  0  0  0  0
   -8.4310  -21.0688   33.7332 C   0  0  0  0  0  0  0  0  0  0  0  0
   -9.6397  -21.8681   32.4722 N   0  0  0  0  0  0  0  0  0  0  0  0
  -10.1653  -23.3546   33.4342 C   0  0  0  0  0  0  0  0  0  0  0  0
  -11.1425  -22.9858   35.6928 C   0  0  0  0  0  0  0  0  0  0  0  0
  -12.3461  -21.7154   36.2975 C   0  0  0  0  0  0  0  0  0  0  0  0
  -11.1625  -21.7342   37.0393 C   0  0  0  0  0  0  0  0  0  0  0  0
  -10.7239  -23.8669   32.2016 N   0  0  0  0  0  0  0  0  0  0  0  0
  -11.2334  -22.7972   30.9731 C   0  0  0  0  0  0  0  0  0  0  0  0
  -10.9446  -22.6578   29.2614 C   0  0  0  0  0  0  0  0  0  0  0  0
  -11.6367  -21.8485   28.4780 C   0  0  0  0  0  0  0  0  0  0  0  0
  -12.1505  -20.9705   29.3114 C   0  0  0  0  0  0  0  0  0  0  0  0
  -11.5800  -20.7804   30.6061 C   0  0  0  0  0  0  0  0  0  0  0  0
  -10.8575  -21.5856   31.4333 C   0  0  0  0  0  0  0  0  0  0  0  0
   -6.4368  -19.7311   32.5170 N   0  0  0  0  0  0  0  0  0  0  0  0
   -5.1032  -19.3321   31.9129 C   0  0  0  0  0  0  0  0  0  0  0  0
   -5.1285  -17.9908   31.1529 C   0  0  0  0  0  0  0  0  0  0  0  0
   -3.9013  -17.1640   30.9828 C   0  0  0  0  0  0  0  0  0  0  0  0
   -3.8284  -15.8113   30.8322 C   0  0  0  0  0  0  0  0  0  0  0  0
   -2.4735  -15.5044   30.7052 C   0  0  0  0  0  0  0  0  0  0  0  0
   -1.7284  -16.6059   30.8013 N   0  0  0  0  0  0  0  0  0  0  0  0
   -2.6389  -17.6608   30.9655 O   0  0  0  0  0  0  0  0  0  0  0  0
   -8.3625  -21.8962   34.4685 H   0  0  0  0  0  0  0  0  0  0  0  0
   -9.0324  -20.2410   34.1507 H   0  0  0  0  0  0  0  0  0  0  0  0
  -12.0259  -23.7505   35.9552 H   0  0  0  0  0  0  0  0  0  0  0  0
  -12.4388  -20.6346   36.0904 H   0  0  0  0  0  0  0  0  0  0  0  0
  -13.2781  -22.0161   36.7709 H   0  0  0  0  0  0  0  0  0  0  0  0
  -11.3717  -22.0084   38.0705 H   0  0  0  0  0  0  0  0  0  0  0  0
  -10.8563  -20.6843   36.9348 H   0  0  0  0  0  0  0  0  0  0  0  0
  -10.4138  -23.4735   28.7477 H   0  0  0  0  0  0  0  0  0  0  0  0
  -11.8305  -21.9639   27.4308 H   0  0  0  0  0  0  0  0  0  0  0  0
  -12.9340  -20.3085   29.0198 H   0  0  0  0  0  0  0  0  0  0  0  0
  -12.4612  -20.5168   31.1593 H   0  0  0  0  0  0  0  0  0  0  0  0
   -7.2773  -19.2310   32.2602 H   0  0  0  0  0  0  0  0  0  0  0  0
   -4.8309  -20.0867   31.1705 H   0  0  0  0  0  0  0  0  0  0  0  0
   -4.3173  -19.4410   32.6530 H   0  0  0  0  0  0  0  0  0  0  0  0
   -5.5484  -18.1770   30.1562 H   0  0  0  0  0  0  0  0  0  0  0  0
   -5.8559  -17.3657   31.6673 H   0  0  0  0  0  0  0  0  0  0  0  0
   -4.7253  -15.2213   30.8444 H   0  0  0  0  0  0  0  0  0  0  0  0
   -1.9866  -14.5519   30.5577 H   0  0  0  0  0  0  0  0  0  0  0  0
  1  2  2  0
  2  3  1  0
  3  4  1  0
  4  5  1  0
  5  6  1  0
  6  7  1  0
  7  8  1  0
  5  9  2  0
  9 10  1  0
 10 11  2  0
 11 12  1  0
 12 13  2  0
 13 14  1  0
 14 15  2  0
  2 16  1  0
 16 17  1  0
 17 18  1  0
 18 19  1  0
 19 20  2  0
 20 21  1  0
 21 22  2  0
 22 23  1  0
 15  4  1  0
 23 19  1  0
  8  6  1  0
 15 10  1  0
  3 24  1  0
  3 25  1  0
  6 26  1  0
  7 27  1  0
  7 28  1  0
  8 29  1  0
  8 30  1  0
 11 31  1  0
 12 32  1  0
 13 33  1  0
 14 34  1  0
 16 35  1  0
 17 36  1  0
 17 37  1  0
 18 38  1  0
 18 39  1  0
 20 40  1  0
 21 41  1  0
M  END
>  <Energy>  (648) 
814.70406249719679

>  <compound_id>  (648) 
11627

>  <target_id>  (648) 
1

>  <reference_id>  (648) 
59

>  <inspiration_ids>  (648) 
[94, 59]

>  <energy_score>  (648) 
758.9331704651665

>  <distance_score>  (648) 
10.480293439678265

>  <path>  (648) 
/opt/xchem-fragalysis-2/maxwin/BulkDock/SCRATCH/511014/C11627-P59/C11627-P59.minimised.mol

>  <scratch_subdir>  (648) 
/opt/xchem-fragalysis-2/maxwin/BulkDock/SCRATCH/511014/C11627-P59

>  <fragmenstein_runtime>  (648) 
27.819005727767944

>  <fragmenstein_outcome>  (648) 
too moved

>  <fragmenstein_mode>  (648) 
expansion

>  <fragmenstein_error>  (648) 


$$$$
C11629-P94
     RDKit          3D

 36 38  0  0  0  0  0  0  0  0999 V2000
   -1.1556  -10.7042   37.5088 C   0  0  0  0  0  0  0  0  0  0  0  0
   -2.7097  -10.7166   37.2781 C   0  0  0  0  0  0  0  0  0  0  0  0
   -3.2655  -11.2142   38.6147 C   0  0  0  0  0  0  0  0  0  0  0  0
   -3.0274  -11.5335   35.9220 C   0  0  0  0  0  0  0  0  0  0  0  0
   -2.5077  -10.9753   34.9471 O   0  0  0  0  0  0  0  0  0  0  0  0
   -3.7347  -12.8192   35.8888 O   0  0  0  0  0  0  0  0  0  0  0  0
   -4.1850  -14.3211   35.0393 C   0  0  0  0  0  0  0  0  0  0  0  0
   -5.6737  -15.3654   34.4291 C   0  0  0  0  0  0  0  0  0  0  0  0
   -5.6023  -16.3279   33.4662 N   0  0  0  0  0  0  0  0  0  0  0  0
   -6.6586  -17.1701   33.6789 C   0  0  0  0  0  0  0  0  0  0  0  0
   -6.8779  -18.4964   33.4678 C   0  0  0  0  0  0  0  0  0  0  0  0
   -5.9706  -19.3815   33.0137 F   0  0  0  0  0  0  0  0  0  0  0  0
   -8.1603  -18.9002   33.6982 C   0  0  0  0  0  0  0  0  0  0  0  0
   -9.2167  -18.0241   33.9811 C   0  0  0  0  0  0  0  0  0  0  0  0
   -8.9419  -16.8272   34.4967 C   0  0  0  0  0  0  0  0  0  0  0  0
   -7.6147  -16.5331   34.4008 C   0  0  0  0  0  0  0  0  0  0  0  0
   -6.8696  -15.6772   35.1024 N   0  0  0  0  0  0  0  0  0  0  0  0
   -3.0324   -9.2098   37.0231 C   0  0  0  0  0  0  0  0  0  0  0  0
   -3.7475   -8.2475   37.7041 C   0  0  0  0  0  0  0  0  0  0  0  0
   -3.4269   -7.0373   37.0647 C   0  0  0  0  0  0  0  0  0  0  0  0
   -2.6450   -7.2220   36.0027 N   0  0  0  0  0  0  0  0  0  0  0  0
   -2.3794   -8.5827   35.9828 O   0  0  0  0  0  0  0  0  0  0  0  0
   -0.8683   -9.9244   38.2271 H   0  0  0  0  0  0  0  0  0  0  0  0
   -0.7933  -11.6482   37.9240 H   0  0  0  0  0  0  0  0  0  0  0  0
   -0.5963  -10.5013   36.5886 H   0  0  0  0  0  0  0  0  0  0  0  0
   -3.1307  -12.2961   38.7099 H   0  0  0  0  0  0  0  0  0  0  0  0
   -2.7406  -10.7526   39.4617 H   0  0  0  0  0  0  0  0  0  0  0  0
   -4.3161  -10.9603   38.7741 H   0  0  0  0  0  0  0  0  0  0  0  0
   -3.3903  -14.4102   34.3047 H   0  0  0  0  0  0  0  0  0  0  0  0
   -4.0380  -14.8273   35.9695 H   0  0  0  0  0  0  0  0  0  0  0  0
   -8.3637  -19.9425   33.5113 H   0  0  0  0  0  0  0  0  0  0  0  0
  -10.2402  -18.3947   34.0145 H   0  0  0  0  0  0  0  0  0  0  0  0
   -9.7109  -16.2321   34.9329 H   0  0  0  0  0  0  0  0  0  0  0  0
   -7.3547  -15.1309   35.7703 H   0  0  0  0  0  0  0  0  0  0  0  0
   -4.3462   -8.3911   38.5904 H   0  0  0  0  0  0  0  0  0  0  0  0
   -3.7246   -6.0335   37.3322 H   0  0  0  0  0  0  0  0  0  0  0  0
  1  2  1  0
  2  3  1  0
  2  4  1  0
  4  5  2  0
  4  6  1  0
  6  7  1  0
  7  8  1  0
  8  9  2  0
  9 10  1  0
 10 11  2  0
 11 12  1  0
 11 13  1  0
 13 14  2  0
 14 15  1  0
 15 16  2  0
 16 17  1  0
  2 18  1  0
 18 19  2  0
 19 20  1  0
 20 21  2  0
 21 22  1  0
 17  8  1  0
 22 18  1  0
 16 10  1  0
  1 23  1  0
  1 24  1  0
  1 25  1  0
  3 26  1  0
  3 27  1  0
  3 28  1  0
  7 29  1  0
  7 30  1  0
 13 31  1  0
 14 32  1  0
 15 33  1  0
 17 34  1  0
 19 35  1  0
 20 36  1  0
M  END
>  <Energy>  (649) 
249.46005472886841

>  <compound_id>  (649) 
11629

>  <target_id>  (649) 
1

>  <reference_id>  (649) 
94

>  <inspiration_ids>  (649) 
[94, 59]

>  <energy_score>  (649) 
170.50841111030468

>  <distance_score>  (649) 
9.758220946762982

>  <path>  (649) 
/opt/xchem-fragalysis-2/maxwin/BulkDock/SCRATCH/511014/C11629-P94/C11629-P94.minimised.mol

>  <scratch_subdir>  (649) 
/opt/xchem-fragalysis-2/maxwin/BulkDock/SCRATCH/511014/C11629-P94

>  <fragmenstein_runtime>  (649) 
13.292609214782715

>  <fragmenstein_outcome>  (649) 
too moved

>  <fragmenstein_mode>  (649) 
expansion

>  <fragmenstein_error>  (649) 


$$$$
C11629-P59
     RDKit          3D

 36 38  0  0  0  0  0  0  0  0999 V2000
   -8.5370   -8.9855   28.8904 C   0  0  0  0  0  0  0  0  0  0  0  0
   -6.8759   -9.8688   29.2472 C   0  0  0  0  0  0  0  0  0  0  0  0
   -6.8969   -8.9464   27.4642 C   0  0  0  0  0  0  0  0  0  0  0  0
   -5.7360  -11.7088   29.4546 C   0  0  0  0  0  0  0  0  0  0  0  0
   -4.5058  -11.7880   29.2418 O   0  0  0  0  0  0  0  0  0  0  0  0
   -6.3357  -13.3229   30.0419 O   0  0  0  0  0  0  0  0  0  0  0  0
   -7.1653  -13.8289   31.5687 C   0  0  0  0  0  0  0  0  0  0  0  0
   -8.6989  -14.7176   32.3489 C   0  0  0  0  0  0  0  0  0  0  0  0
   -8.8419  -16.0791   32.5842 N   0  0  0  0  0  0  0  0  0  0  0  0
   -9.6949  -16.4896   33.7249 C   0  0  0  0  0  0  0  0  0  0  0  0
   -9.8337  -17.6904   34.4948 C   0  0  0  0  0  0  0  0  0  0  0  0
   -9.0026  -18.7286   34.3517 F   0  0  0  0  0  0  0  0  0  0  0  0
  -10.9001  -17.8698   35.3647 C   0  0  0  0  0  0  0  0  0  0  0  0
  -11.9161  -16.9413   35.3585 C   0  0  0  0  0  0  0  0  0  0  0  0
  -11.7953  -15.7563   34.5951 C   0  0  0  0  0  0  0  0  0  0  0  0
  -10.5700  -15.4523   33.8291 C   0  0  0  0  0  0  0  0  0  0  0  0
   -9.8926  -14.3858   33.0690 N   0  0  0  0  0  0  0  0  0  0  0  0
   -6.0341   -8.4327   29.8408 C   0  0  0  0  0  0  0  0  0  0  0  0
   -5.1643   -7.8179   28.8792 C   0  0  0  0  0  0  0  0  0  0  0  0
   -3.4786   -7.4575   29.5390 C   0  0  0  0  0  0  0  0  0  0  0  0
   -3.2843   -8.0074   30.8709 N   0  0  0  0  0  0  0  0  0  0  0  0
   -4.8916   -8.6069   31.2519 O   0  0  0  0  0  0  0  0  0  0  0  0
   -8.9495   -8.9888   27.8714 H   0  0  0  0  0  0  0  0  0  0  0  0
   -9.4788   -9.3100   29.3539 H   0  0  0  0  0  0  0  0  0  0  0  0
   -8.4413   -7.8997   29.0513 H   0  0  0  0  0  0  0  0  0  0  0  0
   -7.0663   -7.8585   27.5716 H   0  0  0  0  0  0  0  0  0  0  0  0
   -7.6897   -9.2030   26.7279 H   0  0  0  0  0  0  0  0  0  0  0  0
   -6.0925   -9.1131   26.7491 H   0  0  0  0  0  0  0  0  0  0  0  0
   -7.1873  -12.8524   32.0772 H   0  0  0  0  0  0  0  0  0  0  0  0
   -7.8257  -14.0682   30.7749 H   0  0  0  0  0  0  0  0  0  0  0  0
  -10.9669  -18.7732   35.9579 H   0  0  0  0  0  0  0  0  0  0  0  0
  -12.8155  -17.1168   35.9414 H   0  0  0  0  0  0  0  0  0  0  0  0
  -12.7099  -15.1820   34.5800 H   0  0  0  0  0  0  0  0  0  0  0  0
   -9.9082  -13.4708   33.4261 H   0  0  0  0  0  0  0  0  0  0  0  0
   -5.1894   -7.8504   27.7897 H   0  0  0  0  0  0  0  0  0  0  0  0
   -2.6107   -7.1567   28.9342 H   0  0  0  0  0  0  0  0  0  0  0  0
  1  2  1  0
  2  3  1  0
  2  4  1  0
  4  5  2  0
  4  6  1  0
  6  7  1  0
  7  8  1  0
  8  9  2  0
  9 10  1  0
 10 11  2  0
 11 12  1  0
 11 13  1  0
 13 14  2  0
 14 15  1  0
 15 16  2  0
 16 17  1  0
  2 18  1  0
 18 19  2  0
 19 20  1  0
 20 21  2  0
 21 22  1  0
 17  8  1  0
 22 18  1  0
 16 10  1  0
  1 23  1  0
  1 24  1  0
  1 25  1  0
  3 26  1  0
  3 27  1  0
  3 28  1  0
  7 29  1  0
  7 30  1  0
 13 31  1  0
 14 32  1  0
 15 33  1  0
 17 34  1  0
 19 35  1  0
 20 36  1  0
M  END
>  <Energy>  (650) 
817.74053244420031

>  <compound_id>  (650) 
11629

>  <target_id>  (650) 
1

>  <reference_id>  (650) 
59

>  <inspiration_ids>  (650) 
[94, 59]

>  <energy_score>  (650) 
738.7888888256475

>  <distance_score>  (650) 
9.097277088780569

>  <path>  (650) 
/opt/xchem-fragalysis-2/maxwin/BulkDock/SCRATCH/511014/C11629-P59/C11629-P59.minimised.mol

>  <scratch_subdir>  (650) 
/opt/xchem-fragalysis-2/maxwin/BulkDock/SCRATCH/511014/C11629-P59

>  <fragmenstein_runtime>  (650) 
16.50231170654297

>  <fragmenstein_outcome>  (650) 
too moved

>  <fragmenstein_mode>  (650) 
expansion

>  <fragmenstein_error>  (650) 


$$$$
C11631-P94
     RDKit          3D

 39 41  0  0  0  0  0  0  0  0999 V2000
  -15.7162  -16.6530   34.8600 C   0  0  0  0  0  0  0  0  0  0  0  0
  -14.2592  -16.9935   35.0155 C   0  0  0  0  0  0  0  0  0  0  0  0
  -13.8922  -18.2274   35.5547 C   0  0  0  0  0  0  0  0  0  0  0  0
  -12.5569  -18.4973   35.8557 C   0  0  0  0  0  0  0  0  0  0  0  0
  -11.5818  -17.5222   35.6290 C   0  0  0  0  0  0  0  0  0  0  0  0
  -10.2514  -17.5325   35.9215 N   0  0  0  0  0  0  0  0  0  0  0  0
   -9.7286  -16.5845   35.1827 C   0  0  0  0  0  0  0  0  0  0  0  0
  -10.6948  -15.7973   34.6121 N   0  0  0  0  0  0  0  0  0  0  0  0
  -10.5595  -14.9450   33.3736 C   0  0  0  0  0  0  0  0  0  0  0  0
   -9.2203  -13.7916   32.7617 C   0  0  0  0  0  0  0  0  0  0  0  0
   -8.2370  -14.4779   32.2914 O   0  0  0  0  0  0  0  0  0  0  0  0
   -8.9529  -11.9809   32.8275 O   0  0  0  0  0  0  0  0  0  0  0  0
   -9.4570  -10.1630   32.3402 C   0  0  0  0  0  0  0  0  0  0  0  0
   -9.6239  -10.3152   30.4268 C   0  0  0  0  0  0  0  0  0  0  0  0
   -9.4285   -8.1329   33.1679 C   0  0  0  0  0  0  0  0  0  0  0  0
   -8.2888   -6.7659   34.1421 C   0  0  0  0  0  0  0  0  0  0  0  0
   -7.2019   -5.8299   34.4889 C   0  0  0  0  0  0  0  0  0  0  0  0
   -7.2044   -5.0247   35.7751 C   0  0  0  0  0  0  0  0  0  0  0  0
   -8.1749   -5.5117   36.4647 N   0  0  0  0  0  0  0  0  0  0  0  0
   -8.0170   -6.7751   35.8961 O   0  0  0  0  0  0  0  0  0  0  0  0
  -11.9336  -16.3481   34.9818 C   0  0  0  0  0  0  0  0  0  0  0  0
  -13.2737  -16.0481   34.6753 C   0  0  0  0  0  0  0  0  0  0  0  0
  -16.2900  -17.5308   34.5449 H   0  0  0  0  0  0  0  0  0  0  0  0
  -16.1156  -16.2916   35.8127 H   0  0  0  0  0  0  0  0  0  0  0  0
  -15.8631  -15.8747   34.1040 H   0  0  0  0  0  0  0  0  0  0  0  0
  -14.6485  -18.9732   35.7833 H   0  0  0  0  0  0  0  0  0  0  0  0
  -12.2501  -19.4472   36.2505 H   0  0  0  0  0  0  0  0  0  0  0  0
   -8.6690  -16.4518   35.0011 H   0  0  0  0  0  0  0  0  0  0  0  0
  -11.5869  -14.8662   32.9851 H   0  0  0  0  0  0  0  0  0  0  0  0
  -10.1410  -15.7471   32.7811 H   0  0  0  0  0  0  0  0  0  0  0  0
  -10.3983   -9.8557   32.8992 H   0  0  0  0  0  0  0  0  0  0  0  0
   -8.5912  -10.2716   30.1331 H   0  0  0  0  0  0  0  0  0  0  0  0
   -9.6896   -9.4413   29.6883 H   0  0  0  0  0  0  0  0  0  0  0  0
  -10.6555  -10.3196   30.0892 H   0  0  0  0  0  0  0  0  0  0  0  0
   -9.8755   -7.3923   32.4903 H   0  0  0  0  0  0  0  0  0  0  0  0
  -10.2875   -8.2279   33.7710 H   0  0  0  0  0  0  0  0  0  0  0  0
   -6.6245   -5.2199   33.8733 H   0  0  0  0  0  0  0  0  0  0  0  0
   -6.6654   -4.1286   36.0518 H   0  0  0  0  0  0  0  0  0  0  0  0
  -13.5540  -15.1293   34.1746 H   0  0  0  0  0  0  0  0  0  0  0  0
  1  2  1  0
  2  3  2  0
  3  4  1  0
  4  5  2  0
  5  6  1  0
  6  7  2  0
  7  8  1  0
  8  9  1  0
  9 10  1  0
 10 11  2  0
 10 12  1  0
 12 13  1  0
 13 14  1  0
 13 15  1  0
 15 16  1  0
 16 17  2  0
 17 18  1  0
 18 19  2  0
 19 20  1  0
  8 21  1  0
 21 22  2  0
 22  2  1  0
 21  5  1  0
 20 16  1  0
  1 23  1  0
  1 24  1  0
  1 25  1  0
  3 26  1  0
  4 27  1  0
  7 28  1  0
  9 29  1  0
  9 30  1  0
 13 31  1  0
 14 32  1  0
 14 33  1  0
 14 34  1  0
 15 35  1  0
 15 36  1  0
 17 37  1  0
 18 38  1  0
 22 39  1  0
M  END
>  <Energy>  (651) 
776.25894161713643

>  <compound_id>  (651) 
11631

>  <target_id>  (651) 
1

>  <reference_id>  (651) 
94

>  <inspiration_ids>  (651) 
[94, 59]

>  <energy_score>  (651) 
727.6746244136191

>  <distance_score>  (651) 
9.389550711963759

>  <path>  (651) 
/opt/xchem-fragalysis-2/maxwin/BulkDock/SCRATCH/511014/C11631-P94/C11631-P94.minimised.mol

>  <scratch_subdir>  (651) 
/opt/xchem-fragalysis-2/maxwin/BulkDock/SCRATCH/511014/C11631-P94

>  <fragmenstein_runtime>  (651) 
14.547677516937256

>  <fragmenstein_outcome>  (651) 
too moved

>  <fragmenstein_mode>  (651) 
expansion

>  <fragmenstein_error>  (651) 


$$$$
C11631-P59
     RDKit          3D

 39 41  0  0  0  0  0  0  0  0999 V2000
   -3.7017  -20.9167   25.9819 C   0  0  0  0  0  0  0  0  0  0  0  0
   -3.4318  -20.6366   27.4338 C   0  0  0  0  0  0  0  0  0  0  0  0
   -3.3537  -21.6992   28.3466 C   0  0  0  0  0  0  0  0  0  0  0  0
   -3.0758  -21.4596   29.6988 C   0  0  0  0  0  0  0  0  0  0  0  0
   -2.8571  -20.1360   30.1273 C   0  0  0  0  0  0  0  0  0  0  0  0
   -2.6150  -19.6660   31.3862 N   0  0  0  0  0  0  0  0  0  0  0  0
   -2.4258  -18.3716   31.2417 C   0  0  0  0  0  0  0  0  0  0  0  0
   -2.5411  -17.9533   29.9444 N   0  0  0  0  0  0  0  0  0  0  0  0
   -2.3439  -16.5867   29.3921 C   0  0  0  0  0  0  0  0  0  0  0  0
   -1.5928  -15.5078   30.2023 C   0  0  0  0  0  0  0  0  0  0  0  0
   -1.2473  -15.6018   31.3728 O   0  0  0  0  0  0  0  0  0  0  0  0
   -1.3506  -14.3584   29.4470 O   0  0  0  0  0  0  0  0  0  0  0  0
   -0.5652  -13.2520   30.0626 C   0  0  0  0  0  0  0  0  0  0  0  0
    0.9108  -13.6512   30.0421 C   0  0  0  0  0  0  0  0  0  0  0  0
   -0.7657  -11.8828   29.3039 C   0  0  0  0  0  0  0  0  0  0  0  0
   -0.3630  -10.6178   30.0325 C   0  0  0  0  0  0  0  0  0  0  0  0
    0.0089  -10.2769   31.3140 C   0  0  0  0  0  0  0  0  0  0  0  0
    0.1185   -8.8706   31.3046 C   0  0  0  0  0  0  0  0  0  0  0  0
   -0.1471   -8.3624   30.1026 N   0  0  0  0  0  0  0  0  0  0  0  0
   -0.3944   -9.4619   29.2926 O   0  0  0  0  0  0  0  0  0  0  0  0
   -2.8824  -19.0851   29.2052 C   0  0  0  0  0  0  0  0  0  0  0  0
   -3.1853  -19.3084   27.8514 C   0  0  0  0  0  0  0  0  0  0  0  0
   -4.2327  -20.0799   25.5166 H   0  0  0  0  0  0  0  0  0  0  0  0
   -2.7580  -21.0761   25.4514 H   0  0  0  0  0  0  0  0  0  0  0  0
   -4.3272  -21.8078   25.8653 H   0  0  0  0  0  0  0  0  0  0  0  0
   -3.5117  -22.7228   28.0142 H   0  0  0  0  0  0  0  0  0  0  0  0
   -3.0300  -22.2714   30.4162 H   0  0  0  0  0  0  0  0  0  0  0  0
   -2.1668  -17.7045   32.0473 H   0  0  0  0  0  0  0  0  0  0  0  0
   -1.8023  -16.7286   28.4507 H   0  0  0  0  0  0  0  0  0  0  0  0
   -3.3555  -16.2322   29.1988 H   0  0  0  0  0  0  0  0  0  0  0  0
   -0.9067  -13.1402   31.0953 H   0  0  0  0  0  0  0  0  0  0  0  0
    1.0760  -14.5811   30.5951 H   0  0  0  0  0  0  0  0  0  0  0  0
    1.2464  -13.8356   29.0157 H   0  0  0  0  0  0  0  0  0  0  0  0
    1.5446  -12.8774   30.4845 H   0  0  0  0  0  0  0  0  0  0  0  0
   -0.2375  -11.9265   28.3430 H   0  0  0  0  0  0  0  0  0  0  0  0
   -1.8282  -11.8075   29.0484 H   0  0  0  0  0  0  0  0  0  0  0  0
    0.1621  -10.9418   32.1500 H   0  0  0  0  0  0  0  0  0  0  0  0
    0.3761   -8.2023   32.1147 H   0  0  0  0  0  0  0  0  0  0  0  0
   -3.2183  -18.4887   27.1401 H   0  0  0  0  0  0  0  0  0  0  0  0
  1  2  1  0
  2  3  2  0
  3  4  1  0
  4  5  2  0
  5  6  1  0
  6  7  2  0
  7  8  1  0
  8  9  1  0
  9 10  1  0
 10 11  2  0
 10 12  1  0
 12 13  1  0
 13 14  1  0
 13 15  1  0
 15 16  1  0
 16 17  2  0
 17 18  1  0
 18 19  2  0
 19 20  1  0
  8 21  1  0
 21 22  2  0
 22  2  1  0
 21  5  1  0
 20 16  1  0
  1 23  1  0
  1 24  1  0
  1 25  1  0
  3 26  1  0
  4 27  1  0
  7 28  1  0
  9 29  1  0
  9 30  1  0
 13 31  1  0
 14 32  1  0
 14 33  1  0
 14 34  1  0
 15 35  1  0
 15 36  1  0
 17 37  1  0
 18 38  1  0
 22 39  1  0
M  END
>  <Energy>  (652) 
26.622150984855672

>  <compound_id>  (652) 
11631

>  <target_id>  (652) 
1

>  <reference_id>  (652) 
59

>  <inspiration_ids>  (652) 
[94, 59]

>  <energy_score>  (652) 
-21.962166218649145

>  <distance_score>  (652) 
10.113944172428422

>  <path>  (652) 
/opt/xchem-fragalysis-2/maxwin/BulkDock/SCRATCH/511014/C11631-P59/C11631-P59.minimised.mol

>  <scratch_subdir>  (652) 
/opt/xchem-fragalysis-2/maxwin/BulkDock/SCRATCH/511014/C11631-P59

>  <fragmenstein_runtime>  (652) 
18.502777576446533

>  <fragmenstein_outcome>  (652) 
too moved

>  <fragmenstein_mode>  (652) 
expansion

>  <fragmenstein_error>  (652) 


$$$$
C11633-P94
     RDKit          3D

 38 40  0  0  0  0  0  0  0  0999 V2000
  -10.3290  -20.1453   32.1983 C   0  0  0  0  0  0  0  0  0  0  0  0
  -10.6050  -20.2882   30.4542 C   0  0  0  0  0  0  0  0  0  0  0  0
  -11.1821  -22.0304   30.9405 C   0  0  0  0  0  0  0  0  0  0  0  0
  -10.6652  -18.7450   29.0424 N   0  0  0  0  0  0  0  0  0  0  0  0
   -9.2229  -18.4250   27.8683 C   0  0  0  0  0  0  0  0  0  0  0  0
   -8.5659  -16.6524   27.3238 C   0  0  0  0  0  0  0  0  0  0  0  0
   -8.3650  -15.1496   26.3174 N   0  0  0  0  0  0  0  0  0  0  0  0
   -7.3858  -13.6502   26.8191 C   0  0  0  0  0  0  0  0  0  0  0  0
   -6.7376  -12.1040   25.8353 C   0  0  0  0  0  0  0  0  0  0  0  0
   -7.2626  -10.7674   25.5611 C   0  0  0  0  0  0  0  0  0  0  0  0
   -6.3943  -10.0805   24.7110 C   0  0  0  0  0  0  0  0  0  0  0  0
   -5.4761  -10.9096   24.2494 N   0  0  0  0  0  0  0  0  0  0  0  0
   -5.8354  -12.1547   24.7330 O   0  0  0  0  0  0  0  0  0  0  0  0
   -8.8732  -19.6607   28.2346 N   0  0  0  0  0  0  0  0  0  0  0  0
   -9.9581  -21.1748   28.2214 C   0  0  0  0  0  0  0  0  0  0  0  0
   -9.8350  -22.6455   28.1517 C   0  0  0  0  0  0  0  0  0  0  0  0
  -10.9338  -23.3864   27.8776 C   0  0  0  0  0  0  0  0  0  0  0  0
  -12.0755  -22.6777   28.0123 C   0  0  0  0  0  0  0  0  0  0  0  0
  -12.1471  -21.4388   28.7071 C   0  0  0  0  0  0  0  0  0  0  0  0
  -10.9771  -20.6951   29.0106 C   0  0  0  0  0  0  0  0  0  0  0  0
   -9.8506  -19.3314   32.7329 H   0  0  0  0  0  0  0  0  0  0  0  0
  -11.2461  -20.3953   32.7505 H   0  0  0  0  0  0  0  0  0  0  0  0
   -9.6018  -20.9265   32.3395 H   0  0  0  0  0  0  0  0  0  0  0  0
  -11.7231  -20.3669   30.6247 H   0  0  0  0  0  0  0  0  0  0  0  0
  -12.2249  -21.9897   31.3083 H   0  0  0  0  0  0  0  0  0  0  0  0
  -10.6244  -22.4048   31.8060 H   0  0  0  0  0  0  0  0  0  0  0  0
  -11.1198  -22.8577   30.2520 H   0  0  0  0  0  0  0  0  0  0  0  0
   -9.6020  -16.4766   26.9782 H   0  0  0  0  0  0  0  0  0  0  0  0
   -7.9647  -16.3373   28.1426 H   0  0  0  0  0  0  0  0  0  0  0  0
   -7.8933  -15.4671   25.4766 H   0  0  0  0  0  0  0  0  0  0  0  0
   -8.3092  -13.2581   27.2251 H   0  0  0  0  0  0  0  0  0  0  0  0
   -6.8425  -13.8187   27.7394 H   0  0  0  0  0  0  0  0  0  0  0  0
   -8.1890  -10.3545   25.9397 H   0  0  0  0  0  0  0  0  0  0  0  0
   -6.4263   -9.0585   24.3652 H   0  0  0  0  0  0  0  0  0  0  0  0
   -8.8621  -23.1054   28.0045 H   0  0  0  0  0  0  0  0  0  0  0  0
  -10.8940  -24.3934   27.4914 H   0  0  0  0  0  0  0  0  0  0  0  0
  -12.9042  -23.0961   27.4853 H   0  0  0  0  0  0  0  0  0  0  0  0
  -13.0136  -20.9818   29.0796 H   0  0  0  0  0  0  0  0  0  0  0  0
  1  2  1  0
  2  3  1  0
  2  4  1  0
  4  5  1  0
  5  6  1  0
  6  7  1  0
  7  8  1  0
  8  9  1  0
  9 10  2  0
 10 11  1  0
 11 12  2  0
 12 13  1  0
  5 14  2  0
 14 15  1  0
 15 16  2  0
 16 17  1  0
 17 18  2  0
 18 19  1  0
 19 20  2  0
 20  4  1  0
 13  9  1  0
 20 15  1  0
  1 21  1  0
  1 22  1  0
  1 23  1  0
  2 24  1  0
  3 25  1  0
  3 26  1  0
  3 27  1  0
  6 28  1  0
  6 29  1  0
  7 30  1  0
  8 31  1  0
  8 32  1  0
 10 33  1  0
 11 34  1  0
 16 35  1  0
 17 36  1  0
 18 37  1  0
 19 38  1  0
M  END
>  <Energy>  (653) 
1089.3299409477199

>  <compound_id>  (653) 
11633

>  <target_id>  (653) 
1

>  <reference_id>  (653) 
94

>  <inspiration_ids>  (653) 
[94, 59]

>  <energy_score>  (653) 
1043.1499609641282

>  <distance_score>  (653) 
9.136648941733531

>  <path>  (653) 
/opt/xchem-fragalysis-2/maxwin/BulkDock/SCRATCH/511014/C11633-P94/C11633-P94.minimised.mol

>  <scratch_subdir>  (653) 
/opt/xchem-fragalysis-2/maxwin/BulkDock/SCRATCH/511014/C11633-P94

>  <fragmenstein_runtime>  (653) 
10.40568494796753

>  <fragmenstein_outcome>  (653) 
too moved

>  <fragmenstein_mode>  (653) 
expansion

>  <fragmenstein_error>  (653) 


$$$$
C11633-P59
     RDKit          3D

 38 40  0  0  0  0  0  0  0  0999 V2000
  -12.9070  -20.8330   31.8530 C   0  0  0  0  0  0  0  0  0  0  0  0
  -11.7393  -22.2125   32.8539 C   0  0  0  0  0  0  0  0  0  0  0  0
  -12.2755  -22.0689   35.2241 C   0  0  0  0  0  0  0  0  0  0  0  0
  -10.1818  -21.1469   32.5126 N   0  0  0  0  0  0  0  0  0  0  0  0
   -9.6988  -19.9575   33.7339 C   0  0  0  0  0  0  0  0  0  0  0  0
  -10.0831  -18.3457   34.3051 C   0  0  0  0  0  0  0  0  0  0  0  0
   -9.3925  -16.9976   33.9638 N   0  0  0  0  0  0  0  0  0  0  0  0
   -9.9422  -15.4444   33.4504 C   0  0  0  0  0  0  0  0  0  0  0  0
   -8.8740  -14.1924   32.8343 C   0  0  0  0  0  0  0  0  0  0  0  0
   -8.2763  -12.8989   33.0529 C   0  0  0  0  0  0  0  0  0  0  0  0
   -7.1168  -12.7078   32.3430 C   0  0  0  0  0  0  0  0  0  0  0  0
   -6.9512  -13.7283   31.5028 N   0  0  0  0  0  0  0  0  0  0  0  0
   -8.0359  -14.5739   31.7911 O   0  0  0  0  0  0  0  0  0  0  0  0
   -8.7540  -20.9867   33.7810 N   0  0  0  0  0  0  0  0  0  0  0  0
   -9.5679  -21.9609   32.3829 C   0  0  0  0  0  0  0  0  0  0  0  0
   -9.6872  -23.7046   32.3692 C   0  0  0  0  0  0  0  0  0  0  0  0
  -10.0508  -24.0854   30.9798 C   0  0  0  0  0  0  0  0  0  0  0  0
  -10.5612  -22.9669   29.5521 C   0  0  0  0  0  0  0  0  0  0  0  0
  -11.0591  -21.7259   29.8640 C   0  0  0  0  0  0  0  0  0  0  0  0
  -10.6085  -21.1093   31.1846 C   0  0  0  0  0  0  0  0  0  0  0  0
  -14.0810  -21.0860   31.7822 H   0  0  0  0  0  0  0  0  0  0  0  0
  -12.6137  -20.6734   30.8011 H   0  0  0  0  0  0  0  0  0  0  0  0
  -12.7935  -19.9643   32.4834 H   0  0  0  0  0  0  0  0  0  0  0  0
  -11.3947  -23.0604   32.2561 H   0  0  0  0  0  0  0  0  0  0  0  0
  -12.1422  -21.0277   35.8011 H   0  0  0  0  0  0  0  0  0  0  0  0
  -11.7328  -22.6606   36.0340 H   0  0  0  0  0  0  0  0  0  0  0  0
  -13.2313  -22.6110   35.6307 H   0  0  0  0  0  0  0  0  0  0  0  0
  -11.1586  -18.1712   34.3485 H   0  0  0  0  0  0  0  0  0  0  0  0
   -9.8041  -18.4867   35.3607 H   0  0  0  0  0  0  0  0  0  0  0  0
   -8.5206  -17.2383   33.5043 H   0  0  0  0  0  0  0  0  0  0  0  0
  -10.6185  -15.1560   34.2272 H   0  0  0  0  0  0  0  0  0  0  0  0
  -10.6287  -15.3920   32.6406 H   0  0  0  0  0  0  0  0  0  0  0  0
   -8.6436  -11.9764   33.3601 H   0  0  0  0  0  0  0  0  0  0  0  0
   -6.5303  -11.8240   32.4336 H   0  0  0  0  0  0  0  0  0  0  0  0
   -8.9500  -24.2769   32.8904 H   0  0  0  0  0  0  0  0  0  0  0  0
   -9.0227  -24.5894   30.7647 H   0  0  0  0  0  0  0  0  0  0  0  0
  -10.4933  -23.3663   28.5294 H   0  0  0  0  0  0  0  0  0  0  0  0
  -11.5195  -21.1120   29.1043 H   0  0  0  0  0  0  0  0  0  0  0  0
  1  2  1  0
  2  3  1  0
  2  4  1  0
  4  5  1  0
  5  6  1  0
  6  7  1  0
  7  8  1  0
  8  9  1  0
  9 10  2  0
 10 11  1  0
 11 12  2  0
 12 13  1  0
  5 14  2  0
 14 15  1  0
 15 16  2  0
 16 17  1  0
 17 18  2  0
 18 19  1  0
 19 20  2  0
 20  4  1  0
 13  9  1  0
 20 15  1  0
  1 21  1  0
  1 22  1  0
  1 23  1  0
  2 24  1  0
  3 25  1  0
  3 26  1  0
  3 27  1  0
  6 28  1  0
  6 29  1  0
  7 30  1  0
  8 31  1  0
  8 32  1  0
 10 33  1  0
 11 34  1  0
 16 35  1  0
 17 36  1  0
 18 37  1  0
 19 38  1  0
M  END
>  <Energy>  (654) 
1228.5417544928493

>  <compound_id>  (654) 
11633

>  <target_id>  (654) 
1

>  <reference_id>  (654) 
59

>  <inspiration_ids>  (654) 
[94, 59]

>  <energy_score>  (654) 
1182.3617745092556

>  <distance_score>  (654) 
9.739231618972255

>  <path>  (654) 
/opt/xchem-fragalysis-2/maxwin/BulkDock/SCRATCH/511014/C11633-P59/C11633-P59.minimised.mol

>  <scratch_subdir>  (654) 
/opt/xchem-fragalysis-2/maxwin/BulkDock/SCRATCH/511014/C11633-P59

>  <fragmenstein_runtime>  (654) 
12.108415842056274

>  <fragmenstein_outcome>  (654) 
too moved

>  <fragmenstein_mode>  (654) 
expansion

>  <fragmenstein_error>  (654) 


$$$$
C11635-P94
     RDKit          3D

 36 38  0  0  0  0  0  0  0  0999 V2000
  -12.4832  -23.6688   33.7530 C   0  0  0  0  0  0  0  0  0  0  0  0
  -12.0097  -22.6996   32.7616 C   0  0  0  0  0  0  0  0  0  0  0  0
  -11.4000  -21.5579   33.0009 N   0  0  0  0  0  0  0  0  0  0  0  0
  -11.0704  -21.0424   31.7878 C   0  0  0  0  0  0  0  0  0  0  0  0
  -10.4228  -19.6563   31.3604 C   0  0  0  0  0  0  0  0  0  0  0  0
  -10.4973  -17.9873   30.0631 C   0  0  0  0  0  0  0  0  0  0  0  0
   -9.7927  -16.5903   32.0013 C   0  0  0  0  0  0  0  0  0  0  0  0
   -9.9369  -16.8137   33.2906 O   0  0  0  0  0  0  0  0  0  0  0  0
   -8.6853  -14.9595   31.8112 O   0  0  0  0  0  0  0  0  0  0  0  0
   -7.0555  -13.9820   31.2451 C   0  0  0  0  0  0  0  0  0  0  0  0
   -6.2638  -14.1144   29.8547 C   0  0  0  0  0  0  0  0  0  0  0  0
   -6.3488  -12.1255   31.7727 C   0  0  0  0  0  0  0  0  0  0  0  0
   -5.1391  -10.6052   32.0618 C   0  0  0  0  0  0  0  0  0  0  0  0
   -4.8663   -9.5511   33.0297 C   0  0  0  0  0  0  0  0  0  0  0  0
   -3.5672   -8.9657   32.9371 C   0  0  0  0  0  0  0  0  0  0  0  0
   -2.8994   -9.4201   31.9140 N   0  0  0  0  0  0  0  0  0  0  0  0
   -3.6084  -10.5584   31.5316 O   0  0  0  0  0  0  0  0  0  0  0  0
  -10.5905  -20.0140   29.6063 C   0  0  0  0  0  0  0  0  0  0  0  0
  -11.3123  -21.4316   29.5841 C   0  0  0  0  0  0  0  0  0  0  0  0
  -11.6178  -21.8297   30.8174 C   0  0  0  0  0  0  0  0  0  0  0  0
  -12.1490  -22.9122   31.4210 N   0  0  0  0  0  0  0  0  0  0  0  0
  -13.5524  -23.5490   33.9435 H   0  0  0  0  0  0  0  0  0  0  0  0
  -11.9382  -23.4896   34.6753 H   0  0  0  0  0  0  0  0  0  0  0  0
  -12.2747  -24.6921   33.4355 H   0  0  0  0  0  0  0  0  0  0  0  0
  -10.0103  -19.4497   32.4245 H   0  0  0  0  0  0  0  0  0  0  0  0
   -6.4848  -14.8486   31.4578 H   0  0  0  0  0  0  0  0  0  0  0  0
   -5.8615  -15.1343   29.7925 H   0  0  0  0  0  0  0  0  0  0  0  0
   -6.8317  -13.9328   28.9299 H   0  0  0  0  0  0  0  0  0  0  0  0
   -5.3801  -13.4873   29.8909 H   0  0  0  0  0  0  0  0  0  0  0  0
   -5.5498  -12.1405   31.0067 H   0  0  0  0  0  0  0  0  0  0  0  0
   -7.2914  -11.6633   31.9088 H   0  0  0  0  0  0  0  0  0  0  0  0
   -5.4062   -9.4196   33.9282 H   0  0  0  0  0  0  0  0  0  0  0  0
   -3.0407   -8.3295   33.6346 H   0  0  0  0  0  0  0  0  0  0  0  0
   -9.9234  -20.4287   28.8353 H   0  0  0  0  0  0  0  0  0  0  0  0
  -11.2369  -22.0978   28.7300 H   0  0  0  0  0  0  0  0  0  0  0  0
  -12.6181  -23.7052   31.0027 H   0  0  0  0  0  0  0  0  0  0  0  0
  1  2  1  0
  2  3  2  0
  3  4  1  0
  4  5  2  0
  5  6  1  0
  6  7  1  0
  7  8  2  0
  7  9  1  0
  9 10  1  0
 10 11  1  0
 10 12  1  0
 12 13  1  0
 13 14  2  0
 14 15  1  0
 15 16  2  0
 16 17  1  0
  6 18  2  0
 18 19  1  0
 19 20  2  0
 20 21  1  0
 21  2  1  0
 20  4  1  0
 17 13  1  0
  1 22  1  0
  1 23  1  0
  1 24  1  0
  5 25  1  0
 10 26  1  0
 11 27  1  0
 11 28  1  0
 11 29  1  0
 12 30  1  0
 12 31  1  0
 14 32  1  0
 15 33  1  0
 18 34  1  0
 19 35  1  0
 21 36  1  0
M  END
>  <Energy>  (655) 
1695.0812832832817

>  <compound_id>  (655) 
11635

>  <target_id>  (655) 
1

>  <reference_id>  (655) 
94

>  <inspiration_ids>  (655) 
[94, 59]

>  <energy_score>  (655) 
1650.5114481770077

>  <distance_score>  (655) 
7.3075794327594075

>  <path>  (655) 
/opt/xchem-fragalysis-2/maxwin/BulkDock/SCRATCH/511014/C11635-P94/C11635-P94.minimised.mol

>  <scratch_subdir>  (655) 
/opt/xchem-fragalysis-2/maxwin/BulkDock/SCRATCH/511014/C11635-P94

>  <fragmenstein_runtime>  (655) 
12.172703504562378

>  <fragmenstein_outcome>  (655) 
too moved

>  <fragmenstein_mode>  (655) 
expansion

>  <fragmenstein_error>  (655) 


$$$$
C11635-P59
     RDKit          3D

 36 38  0  0  0  0  0  0  0  0999 V2000
  -10.6559  -23.7004   31.9041 C   0  0  0  0  0  0  0  0  0  0  0  0
  -11.2311  -22.5449   30.6392 C   0  0  0  0  0  0  0  0  0  0  0  0
  -11.1288  -21.2633   30.7773 N   0  0  0  0  0  0  0  0  0  0  0  0
  -11.8097  -21.0925   29.7015 C   0  0  0  0  0  0  0  0  0  0  0  0
  -12.9861  -20.4891   29.8110 C   0  0  0  0  0  0  0  0  0  0  0  0
  -12.6958  -19.7708   28.7964 C   0  0  0  0  0  0  0  0  0  0  0  0
  -12.2710  -17.8124   28.8263 C   0  0  0  0  0  0  0  0  0  0  0  0
  -12.3710  -17.1168   29.8018 O   0  0  0  0  0  0  0  0  0  0  0  0
  -11.8472  -17.0526   27.7672 O   0  0  0  0  0  0  0  0  0  0  0  0
  -11.4271  -15.7100   26.9728 C   0  0  0  0  0  0  0  0  0  0  0  0
  -10.3838  -16.3773   26.1490 C   0  0  0  0  0  0  0  0  0  0  0  0
  -10.9994  -14.2837   27.5559 C   0  0  0  0  0  0  0  0  0  0  0  0
   -9.4784  -14.0421   27.4597 C   0  0  0  0  0  0  0  0  0  0  0  0
   -8.4425  -14.3562   26.6439 C   0  0  0  0  0  0  0  0  0  0  0  0
   -7.5026  -13.4281   27.0855 C   0  0  0  0  0  0  0  0  0  0  0  0
   -7.4631  -13.7104   28.3652 N   0  0  0  0  0  0  0  0  0  0  0  0
   -8.7965  -13.8951   28.6241 O   0  0  0  0  0  0  0  0  0  0  0  0
  -12.4734  -20.9123   27.4971 C   0  0  0  0  0  0  0  0  0  0  0  0
  -12.1356  -22.1954   27.4807 C   0  0  0  0  0  0  0  0  0  0  0  0
  -11.5947  -22.0046   28.6605 C   0  0  0  0  0  0  0  0  0  0  0  0
  -10.7070  -22.7212   29.2412 N   0  0  0  0  0  0  0  0  0  0  0  0
  -10.1119  -23.1357   32.6219 H   0  0  0  0  0  0  0  0  0  0  0  0
   -9.8191  -24.3084   31.5599 H   0  0  0  0  0  0  0  0  0  0  0  0
  -11.3269  -24.3414   32.3797 H   0  0  0  0  0  0  0  0  0  0  0  0
  -13.6840  -21.2899   29.8912 H   0  0  0  0  0  0  0  0  0  0  0  0
  -12.2529  -15.5343   26.2749 H   0  0  0  0  0  0  0  0  0  0  0  0
   -9.7433  -16.9755   26.7844 H   0  0  0  0  0  0  0  0  0  0  0  0
  -10.9218  -16.9015   25.3651 H   0  0  0  0  0  0  0  0  0  0  0  0
   -9.7022  -15.8484   25.5416 H   0  0  0  0  0  0  0  0  0  0  0  0
  -11.4033  -14.1622   28.5601 H   0  0  0  0  0  0  0  0  0  0  0  0
  -11.5234  -13.4825   27.0162 H   0  0  0  0  0  0  0  0  0  0  0  0
   -8.3598  -14.8208   25.6821 H   0  0  0  0  0  0  0  0  0  0  0  0
   -6.7267  -12.8900   26.5793 H   0  0  0  0  0  0  0  0  0  0  0  0
  -12.4324  -20.6554   26.4320 H   0  0  0  0  0  0  0  0  0  0  0  0
  -11.9364  -22.9001   26.7062 H   0  0  0  0  0  0  0  0  0  0  0  0
  -10.3254  -23.5672   28.8294 H   0  0  0  0  0  0  0  0  0  0  0  0
  1  2  1  0
  2  3  2  0
  3  4  1  0
  4  5  2  0
  5  6  1  0
  6  7  1  0
  7  8  2  0
  7  9  1  0
  9 10  1  0
 10 11  1  0
 10 12  1  0
 12 13  1  0
 13 14  2  0
 14 15  1  0
 15 16  2  0
 16 17  1  0
  6 18  2  0
 18 19  1  0
 19 20  2  0
 20 21  1  0
 21  2  1  0
 20  4  1  0
 17 13  1  0
  1 22  1  0
  1 23  1  0
  1 24  1  0
  5 25  1  0
 10 26  1  0
 11 27  1  0
 11 28  1  0
 11 29  1  0
 12 30  1  0
 12 31  1  0
 14 32  1  0
 15 33  1  0
 18 34  1  0
 19 35  1  0
 21 36  1  0
M  END
>  <Energy>  (656) 
453.00860870642146

>  <compound_id>  (656) 
11635

>  <target_id>  (656) 
1

>  <reference_id>  (656) 
59

>  <inspiration_ids>  (656) 
[94, 59]

>  <energy_score>  (656) 
408.43877360012027

>  <distance_score>  (656) 
10.50753783496885

>  <path>  (656) 
/opt/xchem-fragalysis-2/maxwin/BulkDock/SCRATCH/511014/C11635-P59/C11635-P59.minimised.mol

>  <scratch_subdir>  (656) 
/opt/xchem-fragalysis-2/maxwin/BulkDock/SCRATCH/511014/C11635-P59

>  <fragmenstein_runtime>  (656) 
28.81225562095642

>  <fragmenstein_outcome>  (656) 
too moved

>  <fragmenstein_mode>  (656) 
expansion

>  <fragmenstein_error>  (656) 


$$$$
C11637-P94
     RDKit          3D

 37 39  0  0  0  0  0  0  0  0999 V2000
  -12.0972  -16.0819   34.8645 C   0  0  0  0  0  0  0  0  0  0  0  0
  -10.6373  -16.2960   35.0325 C   0  0  0  0  0  0  0  0  0  0  0  0
  -10.0901  -16.7033   36.1645 N   0  0  0  0  0  0  0  0  0  0  0  0
   -8.7837  -16.9779   35.8639 C   0  0  0  0  0  0  0  0  0  0  0  0
   -7.7554  -17.4362   36.7022 C   0  0  0  0  0  0  0  0  0  0  0  0
   -6.5412  -17.8373   36.1426 C   0  0  0  0  0  0  0  0  0  0  0  0
   -6.3318  -17.7312   34.7765 C   0  0  0  0  0  0  0  0  0  0  0  0
   -7.3048  -17.1754   33.9500 C   0  0  0  0  0  0  0  0  0  0  0  0
   -8.5286  -16.7909   34.5103 C   0  0  0  0  0  0  0  0  0  0  0  0
   -9.6496  -16.0745   34.0704 N   0  0  0  0  0  0  0  0  0  0  0  0
   -9.6490  -14.9826   32.8829 C   0  0  0  0  0  0  0  0  0  0  0  0
   -9.2733  -13.0066   32.8836 C   0  0  0  0  0  0  0  0  0  0  0  0
   -9.0469  -11.1522   32.0290 C   0  0  0  0  0  0  0  0  0  0  0  0
   -9.9024  -10.3907   32.2308 O   0  0  0  0  0  0  0  0  0  0  0  0
   -7.8063  -10.9738   31.3951 N   0  0  0  0  0  0  0  0  0  0  0  0
   -6.7927   -9.1785   30.6979 C   0  0  0  0  0  0  0  0  0  0  0  0
   -7.2018   -7.1011   31.7607 C   0  0  0  0  0  0  0  0  0  0  0  0
   -8.7442   -6.0744   32.4806 C   0  0  0  0  0  0  0  0  0  0  0  0
   -9.1624   -3.7747   31.7785 C   0  0  0  0  0  0  0  0  0  0  0  0
   -7.6588   -3.7297   30.6189 N   0  0  0  0  0  0  0  0  0  0  0  0
   -6.6690   -5.5730   30.7930 O   0  0  0  0  0  0  0  0  0  0  0  0
  -12.3625  -15.5900   33.9269 H   0  0  0  0  0  0  0  0  0  0  0  0
  -12.4881  -15.4781   35.6894 H   0  0  0  0  0  0  0  0  0  0  0  0
  -12.6154  -17.0463   34.8955 H   0  0  0  0  0  0  0  0  0  0  0  0
   -7.9282  -17.5289   37.7678 H   0  0  0  0  0  0  0  0  0  0  0  0
   -5.7648  -18.2526   36.7794 H   0  0  0  0  0  0  0  0  0  0  0  0
   -5.3924  -18.0665   34.3424 H   0  0  0  0  0  0  0  0  0  0  0  0
   -7.0774  -17.0878   32.9056 H   0  0  0  0  0  0  0  0  0  0  0  0
   -8.7207  -15.3115   32.4260 H   0  0  0  0  0  0  0  0  0  0  0  0
  -10.6179  -15.3345   32.5219 H   0  0  0  0  0  0  0  0  0  0  0  0
   -8.1254  -13.3279   32.9718 H   0  0  0  0  0  0  0  0  0  0  0  0
   -8.9067  -12.4297   33.7147 H   0  0  0  0  0  0  0  0  0  0  0  0
   -7.2648  -11.8310   31.4801 H   0  0  0  0  0  0  0  0  0  0  0  0
   -6.7887   -9.3151   29.5739 H   0  0  0  0  0  0  0  0  0  0  0  0
   -5.7574   -9.2290   31.0698 H   0  0  0  0  0  0  0  0  0  0  0  0
   -9.4879   -6.7426   32.9825 H   0  0  0  0  0  0  0  0  0  0  0  0
   -9.9517   -2.9942   31.7983 H   0  0  0  0  0  0  0  0  0  0  0  0
  1  2  1  0
  2  3  2  0
  3  4  1  0
  4  5  2  0
  5  6  1  0
  6  7  2  0
  7  8  1  0
  8  9  2  0
  9 10  1  0
 10 11  1  0
 11 12  1  0
 12 13  1  0
 13 14  2  0
 13 15  1  0
 15 16  1  0
 16 17  1  0
 17 18  2  0
 18 19  1  0
 19 20  2  0
 20 21  1  0
 10  2  1  0
 21 17  1  0
  9  4  1  0
  1 22  1  0
  1 23  1  0
  1 24  1  0
  5 25  1  0
  6 26  1  0
  7 27  1  0
  8 28  1  0
 11 29  1  0
 11 30  1  0
 12 31  1  0
 12 32  1  0
 15 33  1  0
 16 34  1  0
 16 35  1  0
 18 36  1  0
 19 37  1  0
M  END
>  <Energy>  (657) 
1648.8830947541883

>  <compound_id>  (657) 
11637

>  <target_id>  (657) 
1

>  <reference_id>  (657) 
94

>  <inspiration_ids>  (657) 
[94, 59]

>  <energy_score>  (657) 
1641.9039514992207

>  <distance_score>  (657) 
9.176886842915993

>  <path>  (657) 
/opt/xchem-fragalysis-2/maxwin/BulkDock/SCRATCH/511014/C11637-P94/C11637-P94.minimised.mol

>  <scratch_subdir>  (657) 
/opt/xchem-fragalysis-2/maxwin/BulkDock/SCRATCH/511014/C11637-P94

>  <fragmenstein_runtime>  (657) 
13.726515769958496

>  <fragmenstein_outcome>  (657) 
too moved

>  <fragmenstein_mode>  (657) 
expansion

>  <fragmenstein_error>  (657) 


$$$$
C11637-P59
     RDKit          3D

 37 39  0  0  0  0  0  0  0  0999 V2000
  -10.3152  -23.3380   32.3748 C   0  0  0  0  0  0  0  0  0  0  0  0
  -10.1656  -21.5237   32.1605 C   0  0  0  0  0  0  0  0  0  0  0  0
  -10.4697  -21.1795   30.9256 N   0  0  0  0  0  0  0  0  0  0  0  0
  -11.1984  -21.8027   30.1678 C   0  0  0  0  0  0  0  0  0  0  0  0
  -10.9739  -22.4799   28.9314 C   0  0  0  0  0  0  0  0  0  0  0  0
  -11.7708  -22.3172   27.9188 C   0  0  0  0  0  0  0  0  0  0  0  0
  -12.5174  -21.2618   28.2240 C   0  0  0  0  0  0  0  0  0  0  0  0
  -12.6646  -20.4726   29.4872 C   0  0  0  0  0  0  0  0  0  0  0  0
  -11.8232  -20.6947   30.6433 C   0  0  0  0  0  0  0  0  0  0  0  0
  -10.7409  -19.8542   31.9409 N   0  0  0  0  0  0  0  0  0  0  0  0
  -10.2610  -18.4877   33.2918 C   0  0  0  0  0  0  0  0  0  0  0  0
   -9.7915  -16.4303   33.4209 C   0  0  0  0  0  0  0  0  0  0  0  0
   -9.0542  -14.6540   32.6080 C   0  0  0  0  0  0  0  0  0  0  0  0
   -8.1340  -14.7921   31.8951 O   0  0  0  0  0  0  0  0  0  0  0  0
   -9.6738  -13.2502   32.9813 N   0  0  0  0  0  0  0  0  0  0  0  0
   -9.2609  -11.3369   32.3263 C   0  0  0  0  0  0  0  0  0  0  0  0
  -10.3110   -9.6065   32.8425 C   0  0  0  0  0  0  0  0  0  0  0  0
  -11.3248   -8.4697   32.0236 C   0  0  0  0  0  0  0  0  0  0  0  0
  -11.6459   -7.4375   32.8261 C   0  0  0  0  0  0  0  0  0  0  0  0
  -10.7002   -7.4072   33.7088 N   0  0  0  0  0  0  0  0  0  0  0  0
   -9.8415   -8.4964   33.5852 O   0  0  0  0  0  0  0  0  0  0  0  0
   -9.8984  -24.0461   31.6370 H   0  0  0  0  0  0  0  0  0  0  0  0
  -11.2526  -23.7723   32.2976 H   0  0  0  0  0  0  0  0  0  0  0  0
   -9.5178  -23.6080   33.0159 H   0  0  0  0  0  0  0  0  0  0  0  0
  -10.2186  -23.2206   28.7232 H   0  0  0  0  0  0  0  0  0  0  0  0
  -11.7326  -22.8300   26.9767 H   0  0  0  0  0  0  0  0  0  0  0  0
  -12.8584  -20.9777   27.2659 H   0  0  0  0  0  0  0  0  0  0  0  0
  -13.2193  -19.5718   29.3887 H   0  0  0  0  0  0  0  0  0  0  0  0
   -9.5371  -19.0740   33.8741 H   0  0  0  0  0  0  0  0  0  0  0  0
  -11.2080  -18.4171   33.8337 H   0  0  0  0  0  0  0  0  0  0  0  0
   -9.2508  -16.6245   34.3641 H   0  0  0  0  0  0  0  0  0  0  0  0
  -10.6709  -15.9901   33.9372 H   0  0  0  0  0  0  0  0  0  0  0  0
  -10.3761  -13.3979   33.6534 H   0  0  0  0  0  0  0  0  0  0  0  0
   -8.1800  -11.4292   32.5288 H   0  0  0  0  0  0  0  0  0  0  0  0
   -9.3565  -10.8716   31.3508 H   0  0  0  0  0  0  0  0  0  0  0  0
  -11.6736   -8.6019   30.9995 H   0  0  0  0  0  0  0  0  0  0  0  0
  -12.3569   -6.6326   32.7336 H   0  0  0  0  0  0  0  0  0  0  0  0
  1  2  1  0
  2  3  2  0
  3  4  1  0
  4  5  2  0
  5  6  1  0
  6  7  2  0
  7  8  1  0
  8  9  2  0
  9 10  1  0
 10 11  1  0
 11 12  1  0
 12 13  1  0
 13 14  2  0
 13 15  1  0
 15 16  1  0
 16 17  1  0
 17 18  2  0
 18 19  1  0
 19 20  2  0
 20 21  1  0
 10  2  1  0
 21 17  1  0
  9  4  1  0
  1 22  1  0
  1 23  1  0
  1 24  1  0
  5 25  1  0
  6 26  1  0
  7 27  1  0
  8 28  1  0
 11 29  1  0
 11 30  1  0
 12 31  1  0
 12 32  1  0
 15 33  1  0
 16 34  1  0
 16 35  1  0
 18 36  1  0
 19 37  1  0
M  END
>  <Energy>  (658) 
1091.9175878144752

>  <compound_id>  (658) 
11637

>  <target_id>  (658) 
1

>  <reference_id>  (658) 
59

>  <inspiration_ids>  (658) 
[94, 59]

>  <energy_score>  (658) 
1084.938444559491

>  <distance_score>  (658) 
8.629471181413113

>  <path>  (658) 
/opt/xchem-fragalysis-2/maxwin/BulkDock/SCRATCH/511014/C11637-P59/C11637-P59.minimised.mol

>  <scratch_subdir>  (658) 
/opt/xchem-fragalysis-2/maxwin/BulkDock/SCRATCH/511014/C11637-P59

>  <fragmenstein_runtime>  (658) 
20.046387434005737

>  <fragmenstein_outcome>  (658) 
too moved

>  <fragmenstein_mode>  (658) 
expansion

>  <fragmenstein_error>  (658) 


$$$$
C11640-P94
     RDKit          3D

 38 40  0  0  0  0  0  0  0  0999 V2000
  -11.6798  -22.8545   32.0094 C   0  0  0  0  0  0  0  0  0  0  0  0
  -11.3724  -22.0926   30.7815 C   0  0  0  0  0  0  0  0  0  0  0  0
  -10.3777  -21.2493   30.5442 N   0  0  0  0  0  0  0  0  0  0  0  0
  -10.3313  -20.9311   29.1299 C   0  0  0  0  0  0  0  0  0  0  0  0
   -9.1633  -19.7838   28.1579 C   0  0  0  0  0  0  0  0  0  0  0  0
   -9.6291  -18.1867   27.5603 C   0  0  0  0  0  0  0  0  0  0  0  0
   -9.0145  -16.0574   26.8323 S   0  0  0  0  0  0  0  0  0  0  0  0
  -10.4137  -15.6255   26.8176 O   0  0  0  0  0  0  0  0  0  0  0  0
   -8.3072  -15.7840   25.6027 O   0  0  0  0  0  0  0  0  0  0  0  0
   -8.2253  -14.4751   28.0260 N   0  0  0  0  0  0  0  0  0  0  0  0
   -6.7728  -13.6972   28.5337 C   0  0  0  0  0  0  0  0  0  0  0  0
   -6.1218  -14.2979   29.8217 C   0  0  0  0  0  0  0  0  0  0  0  0
   -5.7384  -12.1028   28.8742 C   0  0  0  0  0  0  0  0  0  0  0  0
   -6.5284  -10.3871   29.4092 C   0  0  0  0  0  0  0  0  0  0  0  0
   -6.7935   -9.3017   28.5632 C   0  0  0  0  0  0  0  0  0  0  0  0
   -5.8554   -8.4850   29.0704 C   0  0  0  0  0  0  0  0  0  0  0  0
   -5.8032   -8.7202   30.4007 N   0  0  0  0  0  0  0  0  0  0  0  0
   -6.2652   -9.9634   30.5593 O   0  0  0  0  0  0  0  0  0  0  0  0
  -11.3503  -18.0989   28.4580 C   0  0  0  0  0  0  0  0  0  0  0  0
  -12.2942  -19.6900   28.8797 C   0  0  0  0  0  0  0  0  0  0  0  0
  -11.7275  -21.0243   28.9815 C   0  0  0  0  0  0  0  0  0  0  0  0
  -12.1297  -22.1519   29.6470 N   0  0  0  0  0  0  0  0  0  0  0  0
  -11.9814  -23.8772   31.7674 H   0  0  0  0  0  0  0  0  0  0  0  0
  -10.7974  -22.9211   32.6488 H   0  0  0  0  0  0  0  0  0  0  0  0
  -12.4829  -22.3707   32.5726 H   0  0  0  0  0  0  0  0  0  0  0  0
   -9.4290  -20.6592   27.4822 H   0  0  0  0  0  0  0  0  0  0  0  0
   -7.7510  -15.3389   28.2936 H   0  0  0  0  0  0  0  0  0  0  0  0
   -6.5420  -13.6802   27.4561 H   0  0  0  0  0  0  0  0  0  0  0  0
   -6.7085  -14.0880   30.7189 H   0  0  0  0  0  0  0  0  0  0  0  0
   -5.2039  -13.8228   30.0902 H   0  0  0  0  0  0  0  0  0  0  0  0
   -5.8593  -15.3616   29.7813 H   0  0  0  0  0  0  0  0  0  0  0  0
   -4.9228  -12.2113   29.6194 H   0  0  0  0  0  0  0  0  0  0  0  0
   -5.2296  -12.0130   27.8745 H   0  0  0  0  0  0  0  0  0  0  0  0
   -6.9733   -9.2874   27.4897 H   0  0  0  0  0  0  0  0  0  0  0  0
   -5.1880   -7.8336   28.5918 H   0  0  0  0  0  0  0  0  0  0  0  0
  -11.9774  -17.2893   28.7827 H   0  0  0  0  0  0  0  0  0  0  0  0
  -13.3009  -19.6729   29.1826 H   0  0  0  0  0  0  0  0  0  0  0  0
  -13.0206  -22.6240   29.5850 H   0  0  0  0  0  0  0  0  0  0  0  0
  1  2  1  0
  2  3  2  0
  3  4  1  0
  4  5  2  0
  5  6  1  0
  6  7  1  0
  7  8  2  0
  7  9  2  0
  7 10  1  0
 10 11  1  0
 11 12  1  0
 11 13  1  0
 13 14  1  0
 14 15  2  0
 15 16  1  0
 16 17  2  0
 17 18  1  0
  6 19  2  0
 19 20  1  0
 20 21  2  0
 21 22  1  0
 22  2  1  0
 21  4  1  0
 18 14  1  0
  1 23  1  0
  1 24  1  0
  1 25  1  0
  5 26  1  0
 10 27  1  0
 11 28  1  0
 12 29  1  0
 12 30  1  0
 12 31  1  0
 13 32  1  0
 13 33  1  0
 15 34  1  0
 16 35  1  0
 19 36  1  0
 20 37  1  0
 22 38  1  0
M  END
>  <Energy>  (659) 
807.81666004661577

>  <compound_id>  (659) 
11640

>  <target_id>  (659) 
1

>  <reference_id>  (659) 
94

>  <inspiration_ids>  (659) 
[94, 59]

>  <energy_score>  (659) 
810.6966867917898

>  <distance_score>  (659) 
7.668425620341678

>  <path>  (659) 
/opt/xchem-fragalysis-2/maxwin/BulkDock/SCRATCH/511014/C11640-P94/C11640-P94.minimised.mol

>  <scratch_subdir>  (659) 
/opt/xchem-fragalysis-2/maxwin/BulkDock/SCRATCH/511014/C11640-P94

>  <fragmenstein_runtime>  (659) 
16.538370370864868

>  <fragmenstein_outcome>  (659) 
too moved

>  <fragmenstein_mode>  (659) 
expansion

>  <fragmenstein_error>  (659) 


$$$$
C11640-P59
     RDKit          3D

 38 40  0  0  0  0  0  0  0  0999 V2000
  -10.9120  -23.4527   31.6707 C   0  0  0  0  0  0  0  0  0  0  0  0
  -11.2367  -22.3629   30.1729 C   0  0  0  0  0  0  0  0  0  0  0  0
  -10.6100  -22.3603   28.9864 N   0  0  0  0  0  0  0  0  0  0  0  0
  -10.7173  -21.0387   28.6442 C   0  0  0  0  0  0  0  0  0  0  0  0
   -9.4502  -19.7526   28.2357 C   0  0  0  0  0  0  0  0  0  0  0  0
   -9.6887  -17.9909   27.8709 C   0  0  0  0  0  0  0  0  0  0  0  0
   -8.4378  -15.8332   27.6762 S   0  0  0  0  0  0  0  0  0  0  0  0
   -8.8303  -15.4908   26.3246 O   0  0  0  0  0  0  0  0  0  0  0  0
   -7.4521  -16.7702   28.1114 O   0  0  0  0  0  0  0  0  0  0  0  0
   -7.5295  -13.6651   28.4576 N   0  0  0  0  0  0  0  0  0  0  0  0
   -6.2932  -11.8223   28.7511 C   0  0  0  0  0  0  0  0  0  0  0  0
   -6.7283  -10.5654   30.1325 C   0  0  0  0  0  0  0  0  0  0  0  0
   -6.6652   -9.5879   28.4467 C   0  0  0  0  0  0  0  0  0  0  0  0
   -5.2461   -8.1649   28.0328 C   0  0  0  0  0  0  0  0  0  0  0  0
   -4.3170   -7.7375   27.0029 C   0  0  0  0  0  0  0  0  0  0  0  0
   -3.0030   -7.2691   27.3245 C   0  0  0  0  0  0  0  0  0  0  0  0
   -2.8158   -7.2613   28.6375 N   0  0  0  0  0  0  0  0  0  0  0  0
   -4.3865   -7.6266   29.0271 O   0  0  0  0  0  0  0  0  0  0  0  0
  -11.5144  -17.8714   28.6710 C   0  0  0  0  0  0  0  0  0  0  0  0
  -12.5891  -19.2953   29.0648 C   0  0  0  0  0  0  0  0  0  0  0  0
  -12.0124  -20.6438   29.1460 C   0  0  0  0  0  0  0  0  0  0  0  0
  -11.8796  -21.2220   30.3259 N   0  0  0  0  0  0  0  0  0  0  0  0
  -11.4219  -24.2243   32.1466 H   0  0  0  0  0  0  0  0  0  0  0  0
   -9.9942  -24.0743   31.5823 H   0  0  0  0  0  0  0  0  0  0  0  0
  -10.6868  -22.6765   32.3627 H   0  0  0  0  0  0  0  0  0  0  0  0
   -8.4427  -20.2952   28.0668 H   0  0  0  0  0  0  0  0  0  0  0  0
   -8.0107  -13.2686   27.6247 H   0  0  0  0  0  0  0  0  0  0  0  0
   -5.3241  -12.0887   29.2226 H   0  0  0  0  0  0  0  0  0  0  0  0
   -7.7884  -10.3616   30.3664 H   0  0  0  0  0  0  0  0  0  0  0  0
   -6.1473  -11.0369   30.8902 H   0  0  0  0  0  0  0  0  0  0  0  0
   -6.5564   -9.5143   30.2268 H   0  0  0  0  0  0  0  0  0  0  0  0
   -6.8372   -9.3684   27.3074 H   0  0  0  0  0  0  0  0  0  0  0  0
   -7.6312   -9.1835   28.7781 H   0  0  0  0  0  0  0  0  0  0  0  0
   -4.1219   -7.8768   25.9833 H   0  0  0  0  0  0  0  0  0  0  0  0
   -2.3242   -7.1142   26.5190 H   0  0  0  0  0  0  0  0  0  0  0  0
  -12.1442  -17.0084   28.7929 H   0  0  0  0  0  0  0  0  0  0  0  0
  -13.5556  -19.2555   29.5045 H   0  0  0  0  0  0  0  0  0  0  0  0
  -12.5204  -21.0772   31.0773 H   0  0  0  0  0  0  0  0  0  0  0  0
  1  2  1  0
  2  3  2  0
  3  4  1  0
  4  5  2  0
  5  6  1  0
  6  7  1  0
  7  8  2  0
  7  9  2  0
  7 10  1  0
 10 11  1  0
 11 12  1  0
 11 13  1  0
 13 14  1  0
 14 15  2  0
 15 16  1  0
 16 17  2  0
 17 18  1  0
  6 19  2  0
 19 20  1  0
 20 21  2  0
 21 22  1  0
 22  2  1  0
 21  4  1  0
 18 14  1  0
  1 23  1  0
  1 24  1  0
  1 25  1  0
  5 26  1  0
 10 27  1  0
 11 28  1  0
 12 29  1  0
 12 30  1  0
 12 31  1  0
 13 32  1  0
 13 33  1  0
 15 34  1  0
 16 35  1  0
 19 36  1  0
 20 37  1  0
 22 38  1  0
M  END
>  <Energy>  (660) 
1516.1531630986249

>  <compound_id>  (660) 
11640

>  <target_id>  (660) 
1

>  <reference_id>  (660) 
59

>  <inspiration_ids>  (660) 
[94, 59]

>  <energy_score>  (660) 
1519.0331898438333

>  <distance_score>  (660) 
6.702221399938499

>  <path>  (660) 
/opt/xchem-fragalysis-2/maxwin/BulkDock/SCRATCH/511014/C11640-P59/C11640-P59.minimised.mol

>  <scratch_subdir>  (660) 
/opt/xchem-fragalysis-2/maxwin/BulkDock/SCRATCH/511014/C11640-P59

>  <fragmenstein_runtime>  (660) 
14.921937942504883

>  <fragmenstein_outcome>  (660) 
too moved

>  <fragmenstein_mode>  (660) 
expansion

>  <fragmenstein_error>  (660) 


$$$$
C11641-P94
     RDKit          3D

 34 37  0  0  0  0  0  0  0  0999 V2000
  -12.2533  -22.5217   31.2382 C   0  0  0  0  0  0  0  0  0  0  0  0
  -11.4431  -21.8296   30.2191 C   0  0  0  0  0  0  0  0  0  0  0  0
  -10.6171  -20.8132   30.4332 N   0  0  0  0  0  0  0  0  0  0  0  0
   -9.9569  -20.5026   29.1989 C   0  0  0  0  0  0  0  0  0  0  0  0
   -8.4311  -19.3628   28.4939 C   0  0  0  0  0  0  0  0  0  0  0  0
   -8.3410  -18.1195   28.0009 C   0  0  0  0  0  0  0  0  0  0  0  0
   -8.1480  -16.7633   27.5423 C   0  0  0  0  0  0  0  0  0  0  0  0
   -8.9589  -16.0467   26.6637 C   0  0  0  0  0  0  0  0  0  0  0  0
   -9.0580  -14.6789   26.9171 C   0  0  0  0  0  0  0  0  0  0  0  0
   -8.0845  -13.8958   27.3892 C   0  0  0  0  0  0  0  0  0  0  0  0
   -7.6730  -12.7347   26.7465 C   0  0  0  0  0  0  0  0  0  0  0  0
   -8.3476  -11.5751   26.0995 C   0  0  0  0  0  0  0  0  0  0  0  0
   -7.2477  -10.9676   25.5934 C   0  0  0  0  0  0  0  0  0  0  0  0
   -6.3833  -11.8391   25.1927 N   0  0  0  0  0  0  0  0  0  0  0  0
   -6.4785  -12.7457   26.2451 O   0  0  0  0  0  0  0  0  0  0  0  0
   -7.3197  -14.4641   28.2570 C   0  0  0  0  0  0  0  0  0  0  0  0
   -7.3653  -15.9237   28.2434 C   0  0  0  0  0  0  0  0  0  0  0  0
   -9.2757  -18.8155   27.6775 C   0  0  0  0  0  0  0  0  0  0  0  0
   -9.6856  -20.7617   27.5197 C   0  0  0  0  0  0  0  0  0  0  0  0
  -10.2689  -21.5937   28.4540 C   0  0  0  0  0  0  0  0  0  0  0  0
  -11.3870  -22.2006   28.8906 N   0  0  0  0  0  0  0  0  0  0  0  0
  -13.2953  -22.2064   31.1646 H   0  0  0  0  0  0  0  0  0  0  0  0
  -12.1751  -23.6048   31.1156 H   0  0  0  0  0  0  0  0  0  0  0  0
  -11.8970  -22.2733   32.2431 H   0  0  0  0  0  0  0  0  0  0  0  0
   -7.7645  -18.8843   29.3154 H   0  0  0  0  0  0  0  0  0  0  0  0
   -9.7887  -16.4896   26.1291 H   0  0  0  0  0  0  0  0  0  0  0  0
  -10.0630  -14.2722   27.1618 H   0  0  0  0  0  0  0  0  0  0  0  0
   -9.3849  -11.4368   25.8243 H   0  0  0  0  0  0  0  0  0  0  0  0
   -7.0855  -10.0142   25.9819 H   0  0  0  0  0  0  0  0  0  0  0  0
   -6.5932  -13.9625   28.8648 H   0  0  0  0  0  0  0  0  0  0  0  0
   -6.4463  -16.2771   28.7502 H   0  0  0  0  0  0  0  0  0  0  0  0
   -9.8311  -18.0282   27.1092 H   0  0  0  0  0  0  0  0  0  0  0  0
  -10.4687  -21.0027   26.7159 H   0  0  0  0  0  0  0  0  0  0  0  0
  -11.9466  -22.9095   28.4313 H   0  0  0  0  0  0  0  0  0  0  0  0
  1  2  1  0
  2  3  2  0
  3  4  1  0
  4  5  2  0
  5  6  1  0
  6  7  1  0
  7  8  2  0
  8  9  1  0
  9 10  2  0
 10 11  1  0
 11 12  2  0
 12 13  1  0
 13 14  2  0
 14 15  1  0
 10 16  1  0
 16 17  2  0
  6 18  2  0
 18 19  1  0
 19 20  2  0
 20 21  1  0
 21  2  1  0
 20  4  1  0
 17  7  1  0
 15 11  1  0
  1 22  1  0
  1 23  1  0
  1 24  1  0
  5 25  1  0
  8 26  1  0
  9 27  1  0
 12 28  1  0
 13 29  1  0
 16 30  1  0
 17 31  1  0
 18 32  1  0
 19 33  1  0
 21 34  1  0
M  END
>  <Energy>  (661) 
719.05457199660259

>  <compound_id>  (661) 
11641

>  <target_id>  (661) 
1

>  <reference_id>  (661) 
94

>  <inspiration_ids>  (661) 
[94, 59]

>  <energy_score>  (661) 
654.8447857653877

>  <distance_score>  (661) 
9.715530363118106

>  <path>  (661) 
/opt/xchem-fragalysis-2/maxwin/BulkDock/SCRATCH/511014/C11641-P94/C11641-P94.minimised.mol

>  <scratch_subdir>  (661) 
/opt/xchem-fragalysis-2/maxwin/BulkDock/SCRATCH/511014/C11641-P94

>  <fragmenstein_runtime>  (661) 
14.147367477416992

>  <fragmenstein_outcome>  (661) 
too moved

>  <fragmenstein_mode>  (661) 
expansion

>  <fragmenstein_error>  (661) 


$$$$
C11641-P59
     RDKit          3D

 34 37  0  0  0  0  0  0  0  0999 V2000
   -7.2138  -22.2982   27.2222 C   0  0  0  0  0  0  0  0  0  0  0  0
   -5.6075  -22.0814   26.4488 C   0  0  0  0  0  0  0  0  0  0  0  0
   -5.9564  -20.9449   27.2034 N   0  0  0  0  0  0  0  0  0  0  0  0
   -5.5550  -19.5832   26.7580 C   0  0  0  0  0  0  0  0  0  0  0  0
   -5.4894  -18.0799   27.8938 C   0  0  0  0  0  0  0  0  0  0  0  0
   -4.6917  -16.5881   28.8262 C   0  0  0  0  0  0  0  0  0  0  0  0
   -5.7960  -15.2542   29.9243 C   0  0  0  0  0  0  0  0  0  0  0  0
   -6.1413  -13.7608   29.6238 C   0  0  0  0  0  0  0  0  0  0  0  0
   -5.5464  -12.0128   29.5885 C   0  0  0  0  0  0  0  0  0  0  0  0
   -6.2002  -10.8967   30.7611 C   0  0  0  0  0  0  0  0  0  0  0  0
   -5.9161   -8.8192   31.0893 C   0  0  0  0  0  0  0  0  0  0  0  0
   -6.2802   -7.1623   31.9274 C   0  0  0  0  0  0  0  0  0  0  0  0
   -7.2032   -6.8668   33.5203 C   0  0  0  0  0  0  0  0  0  0  0  0
   -8.2384   -7.3020   32.9248 N   0  0  0  0  0  0  0  0  0  0  0  0
   -6.9191   -7.3365   31.8840 O   0  0  0  0  0  0  0  0  0  0  0  0
   -6.8228  -12.4162   31.7020 C   0  0  0  0  0  0  0  0  0  0  0  0
   -6.3037  -14.2086   31.2048 C   0  0  0  0  0  0  0  0  0  0  0  0
   -3.2878  -17.2064   27.7907 C   0  0  0  0  0  0  0  0  0  0  0  0
   -2.7815  -18.7848   26.8403 C   0  0  0  0  0  0  0  0  0  0  0  0
   -3.9681  -20.0276   26.1158 C   0  0  0  0  0  0  0  0  0  0  0  0
   -4.3557  -21.3755   25.6966 N   0  0  0  0  0  0  0  0  0  0  0  0
   -7.0984  -22.6281   28.2586 H   0  0  0  0  0  0  0  0  0  0  0  0
   -7.7935  -22.9657   26.6117 H   0  0  0  0  0  0  0  0  0  0  0  0
   -7.8214  -21.4087   27.4153 H   0  0  0  0  0  0  0  0  0  0  0  0
   -4.5458  -18.5861   27.9254 H   0  0  0  0  0  0  0  0  0  0  0  0
   -7.0307  -13.7853   28.9111 H   0  0  0  0  0  0  0  0  0  0  0  0
   -4.4526  -11.9636   29.4576 H   0  0  0  0  0  0  0  0  0  0  0  0
   -6.0402   -6.0450   31.5665 H   0  0  0  0  0  0  0  0  0  0  0  0
   -7.1001   -6.1958   34.3559 H   0  0  0  0  0  0  0  0  0  0  0  0
   -7.1075  -12.2512   32.7387 H   0  0  0  0  0  0  0  0  0  0  0  0
   -5.8633  -14.7820   32.0168 H   0  0  0  0  0  0  0  0  0  0  0  0
   -2.4238  -16.5112   27.7341 H   0  0  0  0  0  0  0  0  0  0  0  0
   -1.7561  -18.9023   26.4950 H   0  0  0  0  0  0  0  0  0  0  0  0
   -3.6541  -22.0209   25.3887 H   0  0  0  0  0  0  0  0  0  0  0  0
  1  2  1  0
  2  3  2  0
  3  4  1  0
  4  5  2  0
  5  6  1  0
  6  7  1  0
  7  8  2  0
  8  9  1  0
  9 10  2  0
 10 11  1  0
 11 12  2  0
 12 13  1  0
 13 14  2  0
 14 15  1  0
 10 16  1  0
 16 17  2  0
  6 18  2  0
 18 19  1  0
 19 20  2  0
 20 21  1  0
 21  2  1  0
 20  4  1  0
 17  7  1  0
 15 11  1  0
  1 22  1  0
  1 23  1  0
  1 24  1  0
  5 25  1  0
  8 26  1  0
  9 27  1  0
 12 28  1  0
 13 29  1  0
 16 30  1  0
 17 31  1  0
 18 32  1  0
 19 33  1  0
 21 34  1  0
M  END
>  <Energy>  (662) 
2174.3890207835675

>  <compound_id>  (662) 
11641

>  <target_id>  (662) 
1

>  <reference_id>  (662) 
59

>  <inspiration_ids>  (662) 
[94, 59]

>  <energy_score>  (662) 
2110.179234552359

>  <distance_score>  (662) 
9.872949927949511

>  <path>  (662) 
/opt/xchem-fragalysis-2/maxwin/BulkDock/SCRATCH/511014/C11641-P59/C11641-P59.minimised.mol

>  <scratch_subdir>  (662) 
/opt/xchem-fragalysis-2/maxwin/BulkDock/SCRATCH/511014/C11641-P59

>  <fragmenstein_runtime>  (662) 
20.565793752670288

>  <fragmenstein_outcome>  (662) 
too moved

>  <fragmenstein_mode>  (662) 
expansion

>  <fragmenstein_error>  (662) 


$$$$
C11643-P94
     RDKit          3D

 35 37  0  0  0  0  0  0  0  0999 V2000
  -10.8353  -25.6709   32.4641 C   0  0  0  0  0  0  0  0  0  0  0  0
   -9.6834  -24.9790   32.0075 O   0  0  0  0  0  0  0  0  0  0  0  0
   -9.5133  -25.0099   30.6727 C   0  0  0  0  0  0  0  0  0  0  0  0
  -10.1301  -25.6175   29.8204 O   0  0  0  0  0  0  0  0  0  0  0  0
   -8.4393  -24.0363   30.4140 C   0  0  0  0  0  0  0  0  0  0  0  0
   -8.2257  -22.7292   28.6831 C   0  0  0  0  0  0  0  0  0  0  0  0
   -7.3555  -20.8359   28.2741 C   0  0  0  0  0  0  0  0  0  0  0  0
   -6.9478  -19.6064   30.0922 C   0  0  0  0  0  0  0  0  0  0  0  0
   -6.9405  -18.2849   30.6052 N   0  0  0  0  0  0  0  0  0  0  0  0
   -6.4379  -17.7624   31.7468 C   0  0  0  0  0  0  0  0  0  0  0  0
   -5.7091  -16.2690   30.9817 N   0  0  0  0  0  0  0  0  0  0  0  0
   -5.5223  -16.5423   29.4924 C   0  0  0  0  0  0  0  0  0  0  0  0
   -6.0241  -14.3929   30.5334 C   0  0  0  0  0  0  0  0  0  0  0  0
   -4.8835  -12.9184   30.1895 C   0  0  0  0  0  0  0  0  0  0  0  0
   -3.6260  -12.7120   29.6147 C   0  0  0  0  0  0  0  0  0  0  0  0
   -2.8858  -11.6221   29.9966 C   0  0  0  0  0  0  0  0  0  0  0  0
   -3.4768  -11.0103   31.0166 N   0  0  0  0  0  0  0  0  0  0  0  0
   -4.9855  -11.7645   30.9776 O   0  0  0  0  0  0  0  0  0  0  0  0
   -5.9427  -19.4433   32.4164 N   0  0  0  0  0  0  0  0  0  0  0  0
   -6.6138  -20.9892   31.5865 C   0  0  0  0  0  0  0  0  0  0  0  0
   -7.3062  -22.9157   31.8873 C   0  0  0  0  0  0  0  0  0  0  0  0
  -11.7223  -25.0612   32.2765 H   0  0  0  0  0  0  0  0  0  0  0  0
  -10.7280  -25.8018   33.5439 H   0  0  0  0  0  0  0  0  0  0  0  0
  -10.9367  -26.6552   31.9962 H   0  0  0  0  0  0  0  0  0  0  0  0
   -8.8277  -23.1727   27.8748 H   0  0  0  0  0  0  0  0  0  0  0  0
   -6.4624  -21.2808   27.7244 H   0  0  0  0  0  0  0  0  0  0  0  0
   -6.3415  -16.7827   28.7903 H   0  0  0  0  0  0  0  0  0  0  0  0
   -5.8462  -15.6899   28.9727 H   0  0  0  0  0  0  0  0  0  0  0  0
   -5.4449  -17.5504   29.2765 H   0  0  0  0  0  0  0  0  0  0  0  0
   -6.4057  -14.2480   29.5135 H   0  0  0  0  0  0  0  0  0  0  0  0
   -6.8442  -14.0636   31.1662 H   0  0  0  0  0  0  0  0  0  0  0  0
   -2.9958  -13.5580   29.4764 H   0  0  0  0  0  0  0  0  0  0  0  0
   -1.8937  -11.2565   29.8102 H   0  0  0  0  0  0  0  0  0  0  0  0
   -6.3853  -19.4906   33.3029 H   0  0  0  0  0  0  0  0  0  0  0  0
   -7.7139  -23.0378   32.9194 H   0  0  0  0  0  0  0  0  0  0  0  0
  1  2  1  0
  2  3  1  0
  3  4  2  0
  3  5  1  0
  5  6  2  0
  6  7  1  0
  7  8  2  0
  8  9  1  0
  9 10  2  0
 10 11  1  0
 11 12  1  0
 11 13  1  0
 13 14  1  0
 14 15  2  0
 15 16  1  0
 16 17  2  0
 17 18  1  0
 10 19  1  0
 19 20  1  0
 20 21  2  0
 21  5  1  0
 20  8  1  0
 18 14  1  0
  1 22  1  0
  1 23  1  0
  1 24  1  0
  6 25  1  0
  7 26  1  0
 12 27  1  0
 12 28  1  0
 12 29  1  0
 13 30  1  0
 13 31  1  0
 15 32  1  0
 16 33  1  0
 19 34  1  0
 21 35  1  0
M  END
>  <Energy>  (663) 
1910.4457648684806

>  <compound_id>  (663) 
11643

>  <target_id>  (663) 
1

>  <reference_id>  (663) 
94

>  <inspiration_ids>  (663) 
[94, 59]

>  <energy_score>  (663) 
1862.139234443262

>  <distance_score>  (663) 
9.315112624761861

>  <path>  (663) 
/opt/xchem-fragalysis-2/maxwin/BulkDock/SCRATCH/511014/C11643-P94/C11643-P94.minimised.mol

>  <scratch_subdir>  (663) 
/opt/xchem-fragalysis-2/maxwin/BulkDock/SCRATCH/511014/C11643-P94

>  <fragmenstein_runtime>  (663) 
20.695175647735596

>  <fragmenstein_outcome>  (663) 
too moved

>  <fragmenstein_mode>  (663) 
expansion

>  <fragmenstein_error>  (663) 


$$$$
C11643-P59
     RDKit          3D

 35 37  0  0  0  0  0  0  0  0999 V2000
  -12.5886  -20.5311   29.2600 C   0  0  0  0  0  0  0  0  0  0  0  0
  -13.1429  -19.0583   29.1717 O   0  0  0  0  0  0  0  0  0  0  0  0
  -12.3921  -17.8258   28.9417 C   0  0  0  0  0  0  0  0  0  0  0  0
  -11.2947  -17.9461   29.3683 O   0  0  0  0  0  0  0  0  0  0  0  0
  -12.7481  -16.2480   28.1457 C   0  0  0  0  0  0  0  0  0  0  0  0
  -11.7686  -15.8373   27.1450 C   0  0  0  0  0  0  0  0  0  0  0  0
  -11.7375  -14.6423   26.4320 C   0  0  0  0  0  0  0  0  0  0  0  0
  -12.6229  -13.6632   26.8321 C   0  0  0  0  0  0  0  0  0  0  0  0
  -12.6641  -12.3608   26.4039 N   0  0  0  0  0  0  0  0  0  0  0  0
  -13.4196  -11.7107   27.2580 C   0  0  0  0  0  0  0  0  0  0  0  0
  -13.4202  -10.3331   27.4790 N   0  0  0  0  0  0  0  0  0  0  0  0
  -14.2242   -9.7289   28.5247 C   0  0  0  0  0  0  0  0  0  0  0  0
  -12.4787   -9.3940   26.7264 C   0  0  0  0  0  0  0  0  0  0  0  0
  -11.4610   -8.4542   27.3907 C   0  0  0  0  0  0  0  0  0  0  0  0
  -10.1539   -8.1168   27.0762 C   0  0  0  0  0  0  0  0  0  0  0  0
   -9.7795   -7.1581   28.0319 C   0  0  0  0  0  0  0  0  0  0  0  0
  -10.7897   -6.8578   28.8491 N   0  0  0  0  0  0  0  0  0  0  0  0
  -11.8464   -7.6748   28.4472 O   0  0  0  0  0  0  0  0  0  0  0  0
  -14.0796  -12.6617   28.0620 N   0  0  0  0  0  0  0  0  0  0  0  0
  -13.5198  -13.9229   27.8570 C   0  0  0  0  0  0  0  0  0  0  0  0
  -13.6399  -15.2009   28.5083 C   0  0  0  0  0  0  0  0  0  0  0  0
  -11.5923  -20.6589   29.6937 H   0  0  0  0  0  0  0  0  0  0  0  0
  -13.2903  -21.0240   29.8947 H   0  0  0  0  0  0  0  0  0  0  0  0
  -12.6130  -21.0058   28.2775 H   0  0  0  0  0  0  0  0  0  0  0  0
  -10.9473  -16.5042   26.8818 H   0  0  0  0  0  0  0  0  0  0  0  0
  -10.9748  -14.4352   25.6910 H   0  0  0  0  0  0  0  0  0  0  0  0
  -14.3745   -8.6594   28.3435 H   0  0  0  0  0  0  0  0  0  0  0  0
  -15.2215  -10.1794   28.5725 H   0  0  0  0  0  0  0  0  0  0  0  0
  -13.7381   -9.8478   29.4985 H   0  0  0  0  0  0  0  0  0  0  0  0
  -13.1354   -8.7399   26.1357 H   0  0  0  0  0  0  0  0  0  0  0  0
  -11.9304   -9.9802   25.9778 H   0  0  0  0  0  0  0  0  0  0  0  0
   -9.5494   -8.5367   26.2857 H   0  0  0  0  0  0  0  0  0  0  0  0
   -8.8271   -6.6649   28.1583 H   0  0  0  0  0  0  0  0  0  0  0  0
  -14.7036  -12.4255   28.8140 H   0  0  0  0  0  0  0  0  0  0  0  0
  -14.3311  -15.2692   29.3363 H   0  0  0  0  0  0  0  0  0  0  0  0
  1  2  1  0
  2  3  1  0
  3  4  2  0
  3  5  1  0
  5  6  2  0
  6  7  1  0
  7  8  2  0
  8  9  1  0
  9 10  2  0
 10 11  1  0
 11 12  1  0
 11 13  1  0
 13 14  1  0
 14 15  2  0
 15 16  1  0
 16 17  2  0
 17 18  1  0
 10 19  1  0
 19 20  1  0
 20 21  2  0
 21  5  1  0
 20  8  1  0
 18 14  1  0
  1 22  1  0
  1 23  1  0
  1 24  1  0
  6 25  1  0
  7 26  1  0
 12 27  1  0
 12 28  1  0
 12 29  1  0
 13 30  1  0
 13 31  1  0
 15 32  1  0
 16 33  1  0
 19 34  1  0
 21 35  1  0
M  END
>  <Energy>  (664) 
98.472056095204493

>  <compound_id>  (664) 
11643

>  <target_id>  (664) 
1

>  <reference_id>  (664) 
59

>  <inspiration_ids>  (664) 
[94, 59]

>  <energy_score>  (664) 
50.16552566998814

>  <distance_score>  (664) 
11.933756770934473

>  <path>  (664) 
/opt/xchem-fragalysis-2/maxwin/BulkDock/SCRATCH/511014/C11643-P59/C11643-P59.minimised.mol

>  <scratch_subdir>  (664) 
/opt/xchem-fragalysis-2/maxwin/BulkDock/SCRATCH/511014/C11643-P59

>  <fragmenstein_runtime>  (664) 
20.767213106155396

>  <fragmenstein_outcome>  (664) 
too moved

>  <fragmenstein_mode>  (664) 
expansion

>  <fragmenstein_error>  (664) 


$$$$
C11644-P94
     RDKit          3D

 29 31  0  0  0  0  0  0  0  0999 V2000
  -11.5447  -17.7720   28.9416 O   0  0  0  0  0  0  0  0  0  0  0  0
  -12.4776  -18.4848   28.7576 C   0  0  0  0  0  0  0  0  0  0  0  0
  -13.8317  -17.5423   27.9566 O   0  0  0  0  0  0  0  0  0  0  0  0
  -13.9141  -15.8091   28.2511 C   0  0  0  0  0  0  0  0  0  0  0  0
  -13.4023  -14.5164   27.3122 C   0  0  0  0  0  0  0  0  0  0  0  0
  -13.0087  -14.6701   26.1554 O   0  0  0  0  0  0  0  0  0  0  0  0
  -13.5239  -13.1343   27.8080 C   0  0  0  0  0  0  0  0  0  0  0  0
  -13.3492  -11.9312   27.1331 C   0  0  0  0  0  0  0  0  0  0  0  0
  -13.5984  -10.9281   28.0888 C   0  0  0  0  0  0  0  0  0  0  0  0
  -13.8902  -11.4532   29.2828 N   0  0  0  0  0  0  0  0  0  0  0  0
  -13.8371  -12.8416   29.1064 O   0  0  0  0  0  0  0  0  0  0  0  0
  -12.2527  -20.4264   29.1968 C   0  0  0  0  0  0  0  0  0  0  0  0
  -12.9744  -21.5360   29.4583 C   0  0  0  0  0  0  0  0  0  0  0  0
  -13.5647  -21.9504   30.7415 C   0  0  0  0  0  0  0  0  0  0  0  0
  -15.2837  -21.4774   31.4751 Br  0  0  0  0  0  0  0  0  0  0  0  0
  -12.5635  -22.3718   31.5269 C   0  0  0  0  0  0  0  0  0  0  0  0
  -12.4818  -23.1459   32.6383 N   0  0  0  0  0  0  0  0  0  0  0  0
  -11.1610  -23.4209   32.7698 C   0  0  0  0  0  0  0  0  0  0  0  0
  -10.4419  -22.6274   32.0042 N   0  0  0  0  0  0  0  0  0  0  0  0
  -11.2993  -21.9790   31.1608 C   0  0  0  0  0  0  0  0  0  0  0  0
  -11.1972  -21.0190   30.0046 C   0  0  0  0  0  0  0  0  0  0  0  0
  -13.3676  -15.6847   29.1947 H   0  0  0  0  0  0  0  0  0  0  0  0
  -14.9941  -15.6835   28.3879 H   0  0  0  0  0  0  0  0  0  0  0  0
  -13.0834  -11.8197   26.0916 H   0  0  0  0  0  0  0  0  0  0  0  0
  -13.5728   -9.8531   27.9760 H   0  0  0  0  0  0  0  0  0  0  0  0
  -12.5493  -22.4397   28.9400 H   0  0  0  0  0  0  0  0  0  0  0  0
  -13.2518  -23.6609   33.0476 H   0  0  0  0  0  0  0  0  0  0  0  0
  -10.7948  -24.1917   33.4311 H   0  0  0  0  0  0  0  0  0  0  0  0
  -10.2200  -20.7615   29.7391 H   0  0  0  0  0  0  0  0  0  0  0  0
  1  2  2  0
  2  3  1  0
  3  4  1  0
  4  5  1  0
  5  6  2  0
  5  7  1  0
  7  8  2  0
  8  9  1  0
  9 10  2  0
 10 11  1  0
  2 12  1  0
 12 13  2  0
 13 14  1  0
 14 15  1  0
 14 16  2  0
 16 17  1  0
 17 18  1  0
 18 19  2  0
 19 20  1  0
 20 21  2  0
 11  7  1  0
 21 12  1  0
 20 16  1  0
  4 22  1  0
  4 23  1  0
  8 24  1  0
  9 25  1  0
 13 26  1  0
 17 27  1  0
 18 28  1  0
 21 29  1  0
M  END
>  <Energy>  (665) 
349.40101658856918

>  <compound_id>  (665) 
11644

>  <target_id>  (665) 
1

>  <reference_id>  (665) 
94

>  <inspiration_ids>  (665) 
[94, 59]

>  <energy_score>  (665) 
310.08207759194437

>  <distance_score>  (665) 
11.216455915160992

>  <path>  (665) 
/opt/xchem-fragalysis-2/maxwin/BulkDock/SCRATCH/511014/C11644-P94/C11644-P94.minimised.mol

>  <scratch_subdir>  (665) 
/opt/xchem-fragalysis-2/maxwin/BulkDock/SCRATCH/511014/C11644-P94

>  <fragmenstein_runtime>  (665) 
9.248841047286987

>  <fragmenstein_outcome>  (665) 
too moved

>  <fragmenstein_mode>  (665) 
expansion

>  <fragmenstein_error>  (665) 


$$$$
C11644-P59
     RDKit          3D

 29 31  0  0  0  0  0  0  0  0999 V2000
  -10.2445  -21.1948   31.8448 O   0  0  0  0  0  0  0  0  0  0  0  0
   -9.4085  -21.7509   32.5399 C   0  0  0  0  0  0  0  0  0  0  0  0
   -8.1743  -21.0799   33.5598 O   0  0  0  0  0  0  0  0  0  0  0  0
   -7.3654  -19.4936   33.4692 C   0  0  0  0  0  0  0  0  0  0  0  0
   -7.1189  -17.9829   32.2846 C   0  0  0  0  0  0  0  0  0  0  0  0
   -7.4205  -18.3521   31.1514 O   0  0  0  0  0  0  0  0  0  0  0  0
   -6.1350  -16.5144   32.0697 C   0  0  0  0  0  0  0  0  0  0  0  0
   -5.8290  -15.1301   31.7677 C   0  0  0  0  0  0  0  0  0  0  0  0
   -4.5073  -15.3603   31.3970 C   0  0  0  0  0  0  0  0  0  0  0  0
   -4.6658  -15.8666   30.2376 N   0  0  0  0  0  0  0  0  0  0  0  0
   -5.8553  -16.4700   30.3475 O   0  0  0  0  0  0  0  0  0  0  0  0
   -9.5622  -23.4264   32.6029 C   0  0  0  0  0  0  0  0  0  0  0  0
   -9.9783  -24.0623   31.5832 C   0  0  0  0  0  0  0  0  0  0  0  0
  -11.1181  -23.5290   31.6002 C   0  0  0  0  0  0  0  0  0  0  0  0
  -11.5023  -22.0976   29.6976 Br  0  0  0  0  0  0  0  0  0  0  0  0
  -11.3719  -24.7110   32.5473 C   0  0  0  0  0  0  0  0  0  0  0  0
  -12.1336  -26.3146   32.6321 N   0  0  0  0  0  0  0  0  0  0  0  0
  -11.9629  -27.1521   33.5839 C   0  0  0  0  0  0  0  0  0  0  0  0
  -10.8533  -26.5274   33.7127 N   0  0  0  0  0  0  0  0  0  0  0  0
  -10.2540  -25.3722   33.0665 C   0  0  0  0  0  0  0  0  0  0  0  0
   -9.0819  -24.5529   32.8737 C   0  0  0  0  0  0  0  0  0  0  0  0
   -7.8794  -19.2025   34.3730 H   0  0  0  0  0  0  0  0  0  0  0  0
   -6.3793  -19.9475   33.5110 H   0  0  0  0  0  0  0  0  0  0  0  0
   -6.5226  -14.4577   31.2648 H   0  0  0  0  0  0  0  0  0  0  0  0
   -3.5084  -15.2275   31.7904 H   0  0  0  0  0  0  0  0  0  0  0  0
   -9.2631  -24.3838   30.8496 H   0  0  0  0  0  0  0  0  0  0  0  0
  -12.3172  -26.7905   31.7985 H   0  0  0  0  0  0  0  0  0  0  0  0
  -12.4102  -28.0528   33.9742 H   0  0  0  0  0  0  0  0  0  0  0  0
   -8.1067  -24.3611   33.2744 H   0  0  0  0  0  0  0  0  0  0  0  0
  1  2  2  0
  2  3  1  0
  3  4  1  0
  4  5  1  0
  5  6  2  0
  5  7  1  0
  7  8  2  0
  8  9  1  0
  9 10  2  0
 10 11  1  0
  2 12  1  0
 12 13  2  0
 13 14  1  0
 14 15  1  0
 14 16  2  0
 16 17  1  0
 17 18  1  0
 18 19  2  0
 19 20  1  0
 20 21  2  0
 11  7  1  0
 21 12  1  0
 20 16  1  0
  4 22  1  0
  4 23  1  0
  8 24  1  0
  9 25  1  0
 13 26  1  0
 17 27  1  0
 18 28  1  0
 21 29  1  0
M  END
>  <Energy>  (666) 
863.56402220555788

>  <compound_id>  (666) 
11644

>  <target_id>  (666) 
1

>  <reference_id>  (666) 
59

>  <inspiration_ids>  (666) 
[94, 59]

>  <energy_score>  (666) 
824.2450832089424

>  <distance_score>  (666) 
10.684292628873942

>  <path>  (666) 
/opt/xchem-fragalysis-2/maxwin/BulkDock/SCRATCH/511014/C11644-P59/C11644-P59.minimised.mol

>  <scratch_subdir>  (666) 
/opt/xchem-fragalysis-2/maxwin/BulkDock/SCRATCH/511014/C11644-P59

>  <fragmenstein_runtime>  (666) 
10.768377780914307

>  <fragmenstein_outcome>  (666) 
too moved

>  <fragmenstein_mode>  (666) 
expansion

>  <fragmenstein_error>  (666) 


$$$$
C11645-P94
     RDKit          3D

 36 38  0  0  0  0  0  0  0  0999 V2000
  -16.4232  -20.0063   34.6746 C   0  0  0  0  0  0  0  0  0  0  0  0
  -15.5830  -18.8377   35.1574 C   0  0  0  0  0  0  0  0  0  0  0  0
  -14.2032  -19.1827   35.0115 O   0  0  0  0  0  0  0  0  0  0  0  0
  -13.3603  -18.1633   35.1268 C   0  0  0  0  0  0  0  0  0  0  0  0
  -13.6702  -16.8935   35.0369 N   0  0  0  0  0  0  0  0  0  0  0  0
  -12.4653  -16.2258   35.1011 C   0  0  0  0  0  0  0  0  0  0  0  0
  -12.1880  -14.8462   34.9953 C   0  0  0  0  0  0  0  0  0  0  0  0
  -10.8549  -14.3884   35.0432 C   0  0  0  0  0  0  0  0  0  0  0  0
  -10.5738  -12.9109   35.0208 C   0  0  0  0  0  0  0  0  0  0  0  0
  -11.3238  -12.0823   35.5097 O   0  0  0  0  0  0  0  0  0  0  0  0
   -9.3861  -12.6335   34.4117 O   0  0  0  0  0  0  0  0  0  0  0  0
   -8.9462  -11.2573   34.3982 C   0  0  0  0  0  0  0  0  0  0  0  0
   -9.4812  -10.3139   33.2896 C   0  0  0  0  0  0  0  0  0  0  0  0
  -10.6459  -10.4174   32.8991 O   0  0  0  0  0  0  0  0  0  0  0  0
   -8.6006   -9.3044   32.7541 C   0  0  0  0  0  0  0  0  0  0  0  0
   -8.7875   -8.4114   31.7225 C   0  0  0  0  0  0  0  0  0  0  0  0
   -7.5909   -7.6978   31.6705 C   0  0  0  0  0  0  0  0  0  0  0  0
   -6.7251   -8.1183   32.5970 N   0  0  0  0  0  0  0  0  0  0  0  0
   -7.3635   -9.1196   33.2852 O   0  0  0  0  0  0  0  0  0  0  0  0
   -9.8192  -15.3175   35.1921 C   0  0  0  0  0  0  0  0  0  0  0  0
  -10.0776  -16.6899   35.3430 C   0  0  0  0  0  0  0  0  0  0  0  0
  -11.4112  -17.1150   35.2936 C   0  0  0  0  0  0  0  0  0  0  0  0
  -12.0189  -18.3502   35.3009 N   0  0  0  0  0  0  0  0  0  0  0  0
  -16.2056  -20.9109   35.2504 H   0  0  0  0  0  0  0  0  0  0  0  0
  -17.4897  -19.7817   34.7654 H   0  0  0  0  0  0  0  0  0  0  0  0
  -16.1980  -20.2336   33.6272 H   0  0  0  0  0  0  0  0  0  0  0  0
  -15.8456  -17.9532   34.5661 H   0  0  0  0  0  0  0  0  0  0  0  0
  -15.7940  -18.6358   36.2139 H   0  0  0  0  0  0  0  0  0  0  0  0
  -13.0085  -14.1451   34.8760 H   0  0  0  0  0  0  0  0  0  0  0  0
   -9.1526  -10.7893   35.3686 H   0  0  0  0  0  0  0  0  0  0  0  0
   -7.8585  -11.3142   34.3054 H   0  0  0  0  0  0  0  0  0  0  0  0
   -9.6663   -8.3195   31.1008 H   0  0  0  0  0  0  0  0  0  0  0  0
   -7.3201   -6.8989   30.9971 H   0  0  0  0  0  0  0  0  0  0  0  0
   -8.7857  -14.9784   35.2317 H   0  0  0  0  0  0  0  0  0  0  0  0
   -9.2451  -17.3668   35.4688 H   0  0  0  0  0  0  0  0  0  0  0  0
  -11.5722  -19.2513   35.3344 H   0  0  0  0  0  0  0  0  0  0  0  0
  1  2  1  0
  2  3  1  0
  3  4  1  0
  4  5  2  0
  5  6  1  0
  6  7  2  0
  7  8  1  0
  8  9  1  0
  9 10  2  0
  9 11  1  0
 11 12  1  0
 12 13  1  0
 13 14  2  0
 13 15  1  0
 15 16  2  0
 16 17  1  0
 17 18  2  0
 18 19  1  0
  8 20  2  0
 20 21  1  0
 21 22  2  0
 22 23  1  0
 23  4  1  0
 22  6  1  0
 19 15  1  0
  1 24  1  0
  1 25  1  0
  1 26  1  0
  2 27  1  0
  2 28  1  0
  7 29  1  0
 12 30  1  0
 12 31  1  0
 16 32  1  0
 17 33  1  0
 20 34  1  0
 21 35  1  0
 23 36  1  0
M  END
>  <Energy>  (667) 
21.164046008230493

>  <compound_id>  (667) 
11645

>  <target_id>  (667) 
1

>  <reference_id>  (667) 
94

>  <inspiration_ids>  (667) 
[94, 59]

>  <energy_score>  (667) 
-28.52293949828271

>  <distance_score>  (667) 
9.88604177312368

>  <path>  (667) 
/opt/xchem-fragalysis-2/maxwin/BulkDock/SCRATCH/511014/C11645-P94/C11645-P94.minimised.mol

>  <scratch_subdir>  (667) 
/opt/xchem-fragalysis-2/maxwin/BulkDock/SCRATCH/511014/C11645-P94

>  <fragmenstein_runtime>  (667) 
15.1993408203125

>  <fragmenstein_outcome>  (667) 
too moved

>  <fragmenstein_mode>  (667) 
expansion

>  <fragmenstein_error>  (667) 


$$$$
C11645-P59
     RDKit          3D

 36 38  0  0  0  0  0  0  0  0999 V2000
  -10.3769  -24.5460   39.2930 C   0  0  0  0  0  0  0  0  0  0  0  0
  -10.3432  -25.5619   37.4310 C   0  0  0  0  0  0  0  0  0  0  0  0
  -11.1921  -25.7035   35.6925 O   0  0  0  0  0  0  0  0  0  0  0  0
  -10.5981  -25.7642   33.7339 C   0  0  0  0  0  0  0  0  0  0  0  0
   -9.7242  -24.8633   32.5157 N   0  0  0  0  0  0  0  0  0  0  0  0
  -10.4696  -23.8817   31.0705 C   0  0  0  0  0  0  0  0  0  0  0  0
  -10.4604  -22.8275   29.3518 C   0  0  0  0  0  0  0  0  0  0  0  0
  -10.5552  -21.1654   28.4289 C   0  0  0  0  0  0  0  0  0  0  0  0
   -9.3702  -19.3814   28.2643 C   0  0  0  0  0  0  0  0  0  0  0  0
   -8.5056  -19.4756   28.9888 O   0  0  0  0  0  0  0  0  0  0  0  0
   -9.2719  -17.6267   27.5295 O   0  0  0  0  0  0  0  0  0  0  0  0
   -8.3407  -15.8169   27.8229 C   0  0  0  0  0  0  0  0  0  0  0  0
   -7.2701  -14.0772   28.6276 C   0  0  0  0  0  0  0  0  0  0  0  0
   -6.5190  -14.3504   29.6233 O   0  0  0  0  0  0  0  0  0  0  0  0
   -6.5127  -12.2317   28.6305 C   0  0  0  0  0  0  0  0  0  0  0  0
   -6.7495  -10.4910   29.4058 C   0  0  0  0  0  0  0  0  0  0  0  0
   -7.0547  -10.0852   30.7018 C   0  0  0  0  0  0  0  0  0  0  0  0
   -6.4293  -11.0451   31.3006 N   0  0  0  0  0  0  0  0  0  0  0  0
   -5.4583  -11.7549   29.8262 O   0  0  0  0  0  0  0  0  0  0  0  0
  -11.4054  -20.9877   29.4879 C   0  0  0  0  0  0  0  0  0  0  0  0
  -11.3661  -21.6241   30.9550 C   0  0  0  0  0  0  0  0  0  0  0  0
  -10.9369  -22.9790   32.0442 C   0  0  0  0  0  0  0  0  0  0  0  0
  -11.1868  -24.4943   32.5746 N   0  0  0  0  0  0  0  0  0  0  0  0
  -10.4114  -25.3517   40.0550 H   0  0  0  0  0  0  0  0  0  0  0  0
   -9.7736  -24.1121   40.1400 H   0  0  0  0  0  0  0  0  0  0  0  0
  -11.3071  -23.9044   39.2893 H   0  0  0  0  0  0  0  0  0  0  0  0
  -11.2807  -25.0899   37.2740 H   0  0  0  0  0  0  0  0  0  0  0  0
   -9.2896  -25.5192   37.3956 H   0  0  0  0  0  0  0  0  0  0  0  0
  -10.1923  -23.5789   28.5563 H   0  0  0  0  0  0  0  0  0  0  0  0
   -8.5752  -15.5294   26.7879 H   0  0  0  0  0  0  0  0  0  0  0  0
   -7.5649  -16.5153   28.0571 H   0  0  0  0  0  0  0  0  0  0  0  0
   -6.9527   -9.5705   28.7864 H   0  0  0  0  0  0  0  0  0  0  0  0
   -7.4638   -9.2083   31.1773 H   0  0  0  0  0  0  0  0  0  0  0  0
  -12.3331  -20.4369   29.2967 H   0  0  0  0  0  0  0  0  0  0  0  0
  -12.1786  -20.9458   31.2820 H   0  0  0  0  0  0  0  0  0  0  0  0
  -12.0814  -24.6136   32.8723 H   0  0  0  0  0  0  0  0  0  0  0  0
  1  2  1  0
  2  3  1  0
  3  4  1  0
  4  5  2  0
  5  6  1  0
  6  7  2  0
  7  8  1  0
  8  9  1  0
  9 10  2  0
  9 11  1  0
 11 12  1  0
 12 13  1  0
 13 14  2  0
 13 15  1  0
 15 16  2  0
 16 17  1  0
 17 18  2  0
 18 19  1  0
  8 20  2  0
 20 21  1  0
 21 22  2  0
 22 23  1  0
 23  4  1  0
 22  6  1  0
 19 15  1  0
  1 24  1  0
  1 25  1  0
  1 26  1  0
  2 27  1  0
  2 28  1  0
  7 29  1  0
 12 30  1  0
 12 31  1  0
 16 32  1  0
 17 33  1  0
 20 34  1  0
 21 35  1  0
 23 36  1  0
M  END
>  <Energy>  (668) 
2409.2765084073035

>  <compound_id>  (668) 
11645

>  <target_id>  (668) 
1

>  <reference_id>  (668) 
59

>  <inspiration_ids>  (668) 
[94, 59]

>  <energy_score>  (668) 
2359.5895229007856

>  <distance_score>  (668) 
7.971150452311435

>  <path>  (668) 
/opt/xchem-fragalysis-2/maxwin/BulkDock/SCRATCH/511014/C11645-P59/C11645-P59.minimised.mol

>  <scratch_subdir>  (668) 
/opt/xchem-fragalysis-2/maxwin/BulkDock/SCRATCH/511014/C11645-P59

>  <fragmenstein_runtime>  (668) 
19.521646738052368

>  <fragmenstein_outcome>  (668) 
too moved

>  <fragmenstein_mode>  (668) 
expansion

>  <fragmenstein_error>  (668) 


$$$$
C11641-P94
     RDKit          3D

 34 37  0  0  0  0  0  0  0  0999 V2000
  -12.2533  -22.5217   31.2382 C   0  0  0  0  0  0  0  0  0  0  0  0
  -11.4431  -21.8296   30.2191 C   0  0  0  0  0  0  0  0  0  0  0  0
  -10.6171  -20.8132   30.4332 N   0  0  0  0  0  0  0  0  0  0  0  0
   -9.9569  -20.5026   29.1989 C   0  0  0  0  0  0  0  0  0  0  0  0
   -8.4311  -19.3628   28.4939 C   0  0  0  0  0  0  0  0  0  0  0  0
   -8.3410  -18.1195   28.0009 C   0  0  0  0  0  0  0  0  0  0  0  0
   -8.1480  -16.7633   27.5423 C   0  0  0  0  0  0  0  0  0  0  0  0
   -8.9589  -16.0467   26.6637 C   0  0  0  0  0  0  0  0  0  0  0  0
   -9.0580  -14.6789   26.9171 C   0  0  0  0  0  0  0  0  0  0  0  0
   -8.0845  -13.8958   27.3892 C   0  0  0  0  0  0  0  0  0  0  0  0
   -7.6730  -12.7347   26.7465 C   0  0  0  0  0  0  0  0  0  0  0  0
   -8.3476  -11.5751   26.0995 C   0  0  0  0  0  0  0  0  0  0  0  0
   -7.2477  -10.9676   25.5934 C   0  0  0  0  0  0  0  0  0  0  0  0
   -6.3833  -11.8391   25.1927 N   0  0  0  0  0  0  0  0  0  0  0  0
   -6.4785  -12.7457   26.2451 O   0  0  0  0  0  0  0  0  0  0  0  0
   -7.3197  -14.4641   28.2570 C   0  0  0  0  0  0  0  0  0  0  0  0
   -7.3653  -15.9237   28.2434 C   0  0  0  0  0  0  0  0  0  0  0  0
   -9.2757  -18.8155   27.6775 C   0  0  0  0  0  0  0  0  0  0  0  0
   -9.6856  -20.7617   27.5197 C   0  0  0  0  0  0  0  0  0  0  0  0
  -10.2689  -21.5937   28.4540 C   0  0  0  0  0  0  0  0  0  0  0  0
  -11.3870  -22.2006   28.8906 N   0  0  0  0  0  0  0  0  0  0  0  0
  -13.2953  -22.2064   31.1646 H   0  0  0  0  0  0  0  0  0  0  0  0
  -12.1751  -23.6048   31.1156 H   0  0  0  0  0  0  0  0  0  0  0  0
  -11.8970  -22.2733   32.2431 H   0  0  0  0  0  0  0  0  0  0  0  0
   -7.7645  -18.8843   29.3154 H   0  0  0  0  0  0  0  0  0  0  0  0
   -9.7887  -16.4896   26.1291 H   0  0  0  0  0  0  0  0  0  0  0  0
  -10.0630  -14.2722   27.1618 H   0  0  0  0  0  0  0  0  0  0  0  0
   -9.3849  -11.4368   25.8243 H   0  0  0  0  0  0  0  0  0  0  0  0
   -7.0855  -10.0142   25.9819 H   0  0  0  0  0  0  0  0  0  0  0  0
   -6.5932  -13.9625   28.8648 H   0  0  0  0  0  0  0  0  0  0  0  0
   -6.4463  -16.2771   28.7502 H   0  0  0  0  0  0  0  0  0  0  0  0
   -9.8311  -18.0282   27.1092 H   0  0  0  0  0  0  0  0  0  0  0  0
  -10.4687  -21.0027   26.7159 H   0  0  0  0  0  0  0  0  0  0  0  0
  -11.9466  -22.9095   28.4313 H   0  0  0  0  0  0  0  0  0  0  0  0
  1  2  1  0
  2  3  2  0
  3  4  1  0
  4  5  2  0
  5  6  1  0
  6  7  1  0
  7  8  2  0
  8  9  1  0
  9 10  2  0
 10 11  1  0
 11 12  2  0
 12 13  1  0
 13 14  2  0
 14 15  1  0
 10 16  1  0
 16 17  2  0
  6 18  2  0
 18 19  1  0
 19 20  2  0
 20 21  1  0
 21  2  1  0
 20  4  1  0
 17  7  1  0
 15 11  1  0
  1 22  1  0
  1 23  1  0
  1 24  1  0
  5 25  1  0
  8 26  1  0
  9 27  1  0
 12 28  1  0
 13 29  1  0
 16 30  1  0
 17 31  1  0
 18 32  1  0
 19 33  1  0
 21 34  1  0
M  END
>  <Energy>  (669) 
719.05457199660259

>  <compound_id>  (669) 
11641

>  <target_id>  (669) 
1

>  <reference_id>  (669) 
94

>  <inspiration_ids>  (669) 
[94, 59]

>  <energy_score>  (669) 
654.8447857653877

>  <distance_score>  (669) 
9.715530363118106

>  <path>  (669) 
/opt/xchem-fragalysis-2/maxwin/BulkDock/SCRATCH/511014/C11641-P94/C11641-P94.minimised.mol

>  <scratch_subdir>  (669) 
/opt/xchem-fragalysis-2/maxwin/BulkDock/SCRATCH/511014/C11641-P94

>  <fragmenstein_runtime>  (669) 
15.42489218711853

>  <fragmenstein_outcome>  (669) 
too moved

>  <fragmenstein_mode>  (669) 
expansion

>  <fragmenstein_error>  (669) 


$$$$
C11641-P59
     RDKit          3D

 34 37  0  0  0  0  0  0  0  0999 V2000
   -7.2138  -22.2982   27.2222 C   0  0  0  0  0  0  0  0  0  0  0  0
   -5.6075  -22.0814   26.4488 C   0  0  0  0  0  0  0  0  0  0  0  0
   -5.9564  -20.9449   27.2034 N   0  0  0  0  0  0  0  0  0  0  0  0
   -5.5550  -19.5832   26.7580 C   0  0  0  0  0  0  0  0  0  0  0  0
   -5.4894  -18.0799   27.8938 C   0  0  0  0  0  0  0  0  0  0  0  0
   -4.6917  -16.5881   28.8262 C   0  0  0  0  0  0  0  0  0  0  0  0
   -5.7960  -15.2542   29.9243 C   0  0  0  0  0  0  0  0  0  0  0  0
   -6.1413  -13.7608   29.6238 C   0  0  0  0  0  0  0  0  0  0  0  0
   -5.5464  -12.0128   29.5885 C   0  0  0  0  0  0  0  0  0  0  0  0
   -6.2002  -10.8967   30.7611 C   0  0  0  0  0  0  0  0  0  0  0  0
   -5.9161   -8.8192   31.0893 C   0  0  0  0  0  0  0  0  0  0  0  0
   -6.2802   -7.1623   31.9274 C   0  0  0  0  0  0  0  0  0  0  0  0
   -7.2032   -6.8668   33.5203 C   0  0  0  0  0  0  0  0  0  0  0  0
   -8.2384   -7.3020   32.9248 N   0  0  0  0  0  0  0  0  0  0  0  0
   -6.9191   -7.3365   31.8840 O   0  0  0  0  0  0  0  0  0  0  0  0
   -6.8228  -12.4162   31.7020 C   0  0  0  0  0  0  0  0  0  0  0  0
   -6.3037  -14.2086   31.2048 C   0  0  0  0  0  0  0  0  0  0  0  0
   -3.2878  -17.2064   27.7907 C   0  0  0  0  0  0  0  0  0  0  0  0
   -2.7815  -18.7848   26.8403 C   0  0  0  0  0  0  0  0  0  0  0  0
   -3.9681  -20.0276   26.1158 C   0  0  0  0  0  0  0  0  0  0  0  0
   -4.3557  -21.3755   25.6966 N   0  0  0  0  0  0  0  0  0  0  0  0
   -7.0984  -22.6281   28.2586 H   0  0  0  0  0  0  0  0  0  0  0  0
   -7.7935  -22.9657   26.6117 H   0  0  0  0  0  0  0  0  0  0  0  0
   -7.8214  -21.4087   27.4153 H   0  0  0  0  0  0  0  0  0  0  0  0
   -4.5458  -18.5861   27.9254 H   0  0  0  0  0  0  0  0  0  0  0  0
   -7.0307  -13.7853   28.9111 H   0  0  0  0  0  0  0  0  0  0  0  0
   -4.4526  -11.9636   29.4576 H   0  0  0  0  0  0  0  0  0  0  0  0
   -6.0402   -6.0450   31.5665 H   0  0  0  0  0  0  0  0  0  0  0  0
   -7.1001   -6.1958   34.3559 H   0  0  0  0  0  0  0  0  0  0  0  0
   -7.1075  -12.2512   32.7387 H   0  0  0  0  0  0  0  0  0  0  0  0
   -5.8633  -14.7820   32.0168 H   0  0  0  0  0  0  0  0  0  0  0  0
   -2.4238  -16.5112   27.7341 H   0  0  0  0  0  0  0  0  0  0  0  0
   -1.7561  -18.9023   26.4950 H   0  0  0  0  0  0  0  0  0  0  0  0
   -3.6541  -22.0209   25.3887 H   0  0  0  0  0  0  0  0  0  0  0  0
  1  2  1  0
  2  3  2  0
  3  4  1  0
  4  5  2  0
  5  6  1  0
  6  7  1  0
  7  8  2  0
  8  9  1  0
  9 10  2  0
 10 11  1  0
 11 12  2  0
 12 13  1  0
 13 14  2  0
 14 15  1  0
 10 16  1  0
 16 17  2  0
  6 18  2  0
 18 19  1  0
 19 20  2  0
 20 21  1  0
 21  2  1  0
 20  4  1  0
 17  7  1  0
 15 11  1  0
  1 22  1  0
  1 23  1  0
  1 24  1  0
  5 25  1  0
  8 26  1  0
  9 27  1  0
 12 28  1  0
 13 29  1  0
 16 30  1  0
 17 31  1  0
 18 32  1  0
 19 33  1  0
 21 34  1  0
M  END
>  <Energy>  (670) 
2174.3890207835675

>  <compound_id>  (670) 
11641

>  <target_id>  (670) 
1

>  <reference_id>  (670) 
59

>  <inspiration_ids>  (670) 
[94, 59]

>  <energy_score>  (670) 
2110.179234552359

>  <distance_score>  (670) 
9.872949927949511

>  <path>  (670) 
/opt/xchem-fragalysis-2/maxwin/BulkDock/SCRATCH/511014/C11641-P59/C11641-P59.minimised.mol

>  <scratch_subdir>  (670) 
/opt/xchem-fragalysis-2/maxwin/BulkDock/SCRATCH/511014/C11641-P59

>  <fragmenstein_runtime>  (670) 
21.9039146900177

>  <fragmenstein_outcome>  (670) 
too moved

>  <fragmenstein_mode>  (670) 
expansion

>  <fragmenstein_error>  (670) 


$$$$
C11648-P94
     RDKit          3D

 34 36  0  0  0  0  0  0  0  0999 V2000
   -5.7750  -13.0423   23.9865 C   0  0  0  0  0  0  0  0  0  0  0  0
   -6.9209  -14.1275   25.4255 C   0  0  0  0  0  0  0  0  0  0  0  0
   -6.3855  -14.9906   23.6336 C   0  0  0  0  0  0  0  0  0  0  0  0
   -8.1650  -15.7262   26.0085 C   0  0  0  0  0  0  0  0  0  0  0  0
   -8.9956  -15.8722   25.2260 O   0  0  0  0  0  0  0  0  0  0  0  0
   -8.1399  -17.0326   27.3744 N   0  0  0  0  0  0  0  0  0  0  0  0
   -9.1483  -18.6231   27.6323 C   0  0  0  0  0  0  0  0  0  0  0  0
   -8.7501  -19.5453   28.3902 C   0  0  0  0  0  0  0  0  0  0  0  0
  -10.1381  -20.5678   29.4247 C   0  0  0  0  0  0  0  0  0  0  0  0
  -10.5429  -20.8666   30.8551 N   0  0  0  0  0  0  0  0  0  0  0  0
  -11.5229  -21.8050   30.9683 C   0  0  0  0  0  0  0  0  0  0  0  0
  -11.8290  -22.2612   29.7982 N   0  0  0  0  0  0  0  0  0  0  0  0
  -11.0127  -21.5710   28.9713 C   0  0  0  0  0  0  0  0  0  0  0  0
  -10.5561  -21.8094   27.7719 C   0  0  0  0  0  0  0  0  0  0  0  0
   -9.4154  -20.5582   27.5187 C   0  0  0  0  0  0  0  0  0  0  0  0
   -7.9670  -21.2401   27.3495 F   0  0  0  0  0  0  0  0  0  0  0  0
   -7.0173  -12.1309   25.7637 C   0  0  0  0  0  0  0  0  0  0  0  0
   -6.7202  -10.8874   24.8911 C   0  0  0  0  0  0  0  0  0  0  0  0
   -7.4546   -9.7286   25.1871 C   0  0  0  0  0  0  0  0  0  0  0  0
   -8.5353  -10.0655   25.8305 N   0  0  0  0  0  0  0  0  0  0  0  0
   -8.4462  -11.4467   26.0471 O   0  0  0  0  0  0  0  0  0  0  0  0
   -6.3262  -12.5362   23.1460 H   0  0  0  0  0  0  0  0  0  0  0  0
   -5.0895  -12.2971   24.3933 H   0  0  0  0  0  0  0  0  0  0  0  0
   -4.9515  -13.5321   23.3990 H   0  0  0  0  0  0  0  0  0  0  0  0
   -6.3863  -14.4191   22.6983 H   0  0  0  0  0  0  0  0  0  0  0  0
   -5.3024  -15.3240   23.6174 H   0  0  0  0  0  0  0  0  0  0  0  0
   -6.6932  -16.0030   23.2834 H   0  0  0  0  0  0  0  0  0  0  0  0
   -7.3358  -16.8684   27.9524 H   0  0  0  0  0  0  0  0  0  0  0  0
   -8.0162  -18.9217   28.9235 H   0  0  0  0  0  0  0  0  0  0  0  0
  -10.2174  -20.3395   31.6501 H   0  0  0  0  0  0  0  0  0  0  0  0
  -11.9578  -22.1073   31.9132 H   0  0  0  0  0  0  0  0  0  0  0  0
  -10.5713  -22.8255   27.4018 H   0  0  0  0  0  0  0  0  0  0  0  0
   -6.0352  -10.7950   24.0601 H   0  0  0  0  0  0  0  0  0  0  0  0
   -7.3418   -8.7203   24.8197 H   0  0  0  0  0  0  0  0  0  0  0  0
  1  2  1  0
  2  3  1  0
  2  4  1  0
  4  5  2  0
  4  6  1  0
  6  7  1  0
  7  8  2  0
  8  9  1  0
  9 10  1  0
 10 11  1  0
 11 12  2  0
 12 13  1  0
 13 14  1  0
 14 15  2  0
 15 16  1  0
  2 17  1  0
 17 18  2  0
 18 19  1  0
 19 20  2  0
 20 21  1  0
 15  7  1  0
 21 17  1  0
 13  9  2  0
  1 22  1  0
  1 23  1  0
  1 24  1  0
  3 25  1  0
  3 26  1  0
  3 27  1  0
  6 28  1  0
  8 29  1  0
 10 30  1  0
 11 31  1  0
 14 32  1  0
 18 33  1  0
 19 34  1  0
M  END
>  <Energy>  (671) 
1337.6492974396137

>  <compound_id>  (671) 
11648

>  <target_id>  (671) 
1

>  <reference_id>  (671) 
94

>  <inspiration_ids>  (671) 
[94, 59]

>  <energy_score>  (671) 
1277.1256420020854

>  <distance_score>  (671) 
9.490782687871548

>  <path>  (671) 
/opt/xchem-fragalysis-2/maxwin/BulkDock/SCRATCH/511014/C11648-P94/C11648-P94.minimised.mol

>  <scratch_subdir>  (671) 
/opt/xchem-fragalysis-2/maxwin/BulkDock/SCRATCH/511014/C11648-P94

>  <fragmenstein_runtime>  (671) 
12.489159107208252

>  <fragmenstein_outcome>  (671) 
too moved

>  <fragmenstein_mode>  (671) 
expansion

>  <fragmenstein_error>  (671) 


$$$$
C11648-P59
     RDKit          3D

 34 36  0  0  0  0  0  0  0  0999 V2000
   -7.2748  -11.0022   25.4671 C   0  0  0  0  0  0  0  0  0  0  0  0
   -8.9095  -11.4495   26.2699 C   0  0  0  0  0  0  0  0  0  0  0  0
  -10.4226  -11.2603   25.4100 C   0  0  0  0  0  0  0  0  0  0  0  0
   -8.4303  -13.3676   27.0391 C   0  0  0  0  0  0  0  0  0  0  0  0
   -7.2565  -13.4133   27.3342 O   0  0  0  0  0  0  0  0  0  0  0  0
   -9.5998  -14.7326   27.0458 N   0  0  0  0  0  0  0  0  0  0  0  0
   -9.3797  -16.5459   27.3376 C   0  0  0  0  0  0  0  0  0  0  0  0
   -8.5214  -17.8456   28.3422 C   0  0  0  0  0  0  0  0  0  0  0  0
   -8.3986  -19.4618   29.3754 C   0  0  0  0  0  0  0  0  0  0  0  0
   -7.4730  -20.0456   31.1843 N   0  0  0  0  0  0  0  0  0  0  0  0
   -8.9632  -21.4465   31.8828 C   0  0  0  0  0  0  0  0  0  0  0  0
  -10.4530  -21.0408   31.0100 N   0  0  0  0  0  0  0  0  0  0  0  0
  -10.3834  -20.0013   29.4511 C   0  0  0  0  0  0  0  0  0  0  0  0
  -11.2722  -18.2087   29.0793 C   0  0  0  0  0  0  0  0  0  0  0  0
  -11.0880  -17.0288   27.5331 C   0  0  0  0  0  0  0  0  0  0  0  0
  -11.9745  -15.9958   27.4479 F   0  0  0  0  0  0  0  0  0  0  0  0
   -8.8225   -9.5552   26.4361 C   0  0  0  0  0  0  0  0  0  0  0  0
   -8.7499   -8.5850   27.4478 C   0  0  0  0  0  0  0  0  0  0  0  0
   -8.5569   -7.3631   26.7915 C   0  0  0  0  0  0  0  0  0  0  0  0
   -8.5599   -7.5056   25.4690 N   0  0  0  0  0  0  0  0  0  0  0  0
   -8.7672   -8.8600   25.2371 O   0  0  0  0  0  0  0  0  0  0  0  0
   -6.7691  -10.1721   25.9671 H   0  0  0  0  0  0  0  0  0  0  0  0
   -7.3032  -10.6055   24.4367 H   0  0  0  0  0  0  0  0  0  0  0  0
   -6.6541  -11.8910   25.5386 H   0  0  0  0  0  0  0  0  0  0  0  0
  -11.1384  -11.9911   25.7861 H   0  0  0  0  0  0  0  0  0  0  0  0
  -10.9093  -10.2958   25.6259 H   0  0  0  0  0  0  0  0  0  0  0  0
  -10.3700  -11.2304   24.3231 H   0  0  0  0  0  0  0  0  0  0  0  0
  -10.5115  -14.3962   26.8498 H   0  0  0  0  0  0  0  0  0  0  0  0
   -9.2863  -18.3983   27.8146 H   0  0  0  0  0  0  0  0  0  0  0  0
   -7.4918  -19.2830   31.8658 H   0  0  0  0  0  0  0  0  0  0  0  0
   -8.8416  -21.3919   33.0359 H   0  0  0  0  0  0  0  0  0  0  0  0
  -12.3787  -18.2532   29.1335 H   0  0  0  0  0  0  0  0  0  0  0  0
   -8.7604   -8.7380   28.5161 H   0  0  0  0  0  0  0  0  0  0  0  0
   -8.4201   -6.3812   27.2186 H   0  0  0  0  0  0  0  0  0  0  0  0
  1  2  1  0
  2  3  1  0
  2  4  1  0
  4  5  2  0
  4  6  1  0
  6  7  1  0
  7  8  2  0
  8  9  1  0
  9 10  1  0
 10 11  1  0
 11 12  2  0
 12 13  1  0
 13 14  1  0
 14 15  2  0
 15 16  1  0
  2 17  1  0
 17 18  2  0
 18 19  1  0
 19 20  2  0
 20 21  1  0
 15  7  1  0
 21 17  1  0
 13  9  2  0
  1 22  1  0
  1 23  1  0
  1 24  1  0
  3 25  1  0
  3 26  1  0
  3 27  1  0
  6 28  1  0
  8 29  1  0
 10 30  1  0
 11 31  1  0
 14 32  1  0
 18 33  1  0
 19 34  1  0
M  END
>  <Energy>  (672) 
1615.7104234921037

>  <compound_id>  (672) 
11648

>  <target_id>  (672) 
1

>  <reference_id>  (672) 
59

>  <inspiration_ids>  (672) 
[94, 59]

>  <energy_score>  (672) 
1555.1867680545943

>  <distance_score>  (672) 
9.093333771398658

>  <path>  (672) 
/opt/xchem-fragalysis-2/maxwin/BulkDock/SCRATCH/511014/C11648-P59/C11648-P59.minimised.mol

>  <scratch_subdir>  (672) 
/opt/xchem-fragalysis-2/maxwin/BulkDock/SCRATCH/511014/C11648-P59

>  <fragmenstein_runtime>  (672) 
15.944763660430908

>  <fragmenstein_outcome>  (672) 
too moved

>  <fragmenstein_mode>  (672) 
expansion

>  <fragmenstein_error>  (672) 


$$$$
C11649-P94
     RDKit          3D

 37 39  0  0  0  0  0  0  0  0999 V2000
   -4.7690  -21.2996   25.1108 C   0  0  0  0  0  0  0  0  0  0  0  0
   -3.7799  -21.8201   26.0174 N   0  0  0  0  0  0  0  0  0  0  0  0
   -4.1233  -22.6415   27.0555 C   0  0  0  0  0  0  0  0  0  0  0  0
   -3.1157  -22.8726   27.8608 N   0  0  0  0  0  0  0  0  0  0  0  0
   -2.0948  -22.0972   27.3527 C   0  0  0  0  0  0  0  0  0  0  0  0
   -0.8183  -21.8545   27.8684 C   0  0  0  0  0  0  0  0  0  0  0  0
    0.0425  -20.9470   27.1989 C   0  0  0  0  0  0  0  0  0  0  0  0
   -0.2905  -20.2959   25.9948 C   0  0  0  0  0  0  0  0  0  0  0  0
    0.7021  -19.3857   25.4676 N   0  0  0  0  0  0  0  0  0  0  0  0
    0.6598  -18.4655   24.3014 C   0  0  0  0  0  0  0  0  0  0  0  0
   -0.1872  -18.3081   23.4567 O   0  0  0  0  0  0  0  0  0  0  0  0
    2.0651  -17.5959   24.0768 C   0  0  0  0  0  0  0  0  0  0  0  0
    2.6432  -18.1134   22.7380 C   0  0  0  0  0  0  0  0  0  0  0  0
    3.1459  -17.8344   25.1506 C   0  0  0  0  0  0  0  0  0  0  0  0
    1.8296  -16.0389   23.9075 C   0  0  0  0  0  0  0  0  0  0  0  0
    1.0398  -15.2340   23.1053 C   0  0  0  0  0  0  0  0  0  0  0  0
    1.3024  -13.9074   23.5213 C   0  0  0  0  0  0  0  0  0  0  0  0
    2.1879  -13.8630   24.5154 N   0  0  0  0  0  0  0  0  0  0  0  0
    2.5412  -15.1890   24.7432 O   0  0  0  0  0  0  0  0  0  0  0  0
   -1.5469  -20.6168   25.4458 C   0  0  0  0  0  0  0  0  0  0  0  0
   -2.4571  -21.4585   26.1652 C   0  0  0  0  0  0  0  0  0  0  0  0
   -4.2813  -20.7152   24.3300 H   0  0  0  0  0  0  0  0  0  0  0  0
   -5.4655  -20.6787   25.6771 H   0  0  0  0  0  0  0  0  0  0  0  0
   -5.2937  -22.1428   24.6535 H   0  0  0  0  0  0  0  0  0  0  0  0
   -5.1414  -22.9700   27.1880 H   0  0  0  0  0  0  0  0  0  0  0  0
   -0.5115  -22.3234   28.7970 H   0  0  0  0  0  0  0  0  0  0  0  0
    1.0074  -20.7528   27.6652 H   0  0  0  0  0  0  0  0  0  0  0  0
    1.5997  -19.3092   25.9167 H   0  0  0  0  0  0  0  0  0  0  0  0
    1.9505  -17.9401   21.9061 H   0  0  0  0  0  0  0  0  0  0  0  0
    2.8308  -19.1924   22.7836 H   0  0  0  0  0  0  0  0  0  0  0  0
    3.5862  -17.6133   22.4875 H   0  0  0  0  0  0  0  0  0  0  0  0
    2.8001  -17.5316   26.1452 H   0  0  0  0  0  0  0  0  0  0  0  0
    4.0580  -17.2642   24.9356 H   0  0  0  0  0  0  0  0  0  0  0  0
    3.4427  -18.8883   25.1994 H   0  0  0  0  0  0  0  0  0  0  0  0
    0.3610  -15.5718   22.3365 H   0  0  0  0  0  0  0  0  0  0  0  0
    0.8896  -12.9823   23.1459 H   0  0  0  0  0  0  0  0  0  0  0  0
   -1.8246  -20.2572   24.4709 H   0  0  0  0  0  0  0  0  0  0  0  0
  1  2  1  0
  2  3  1  0
  3  4  2  0
  4  5  1  0
  5  6  2  0
  6  7  1  0
  7  8  2  0
  8  9  1  0
  9 10  1  0
 10 11  2  0
 10 12  1  0
 12 13  1  0
 12 14  1  0
 12 15  1  0
 15 16  2  0
 16 17  1  0
 17 18  2  0
 18 19  1  0
  8 20  1  0
 20 21  2  0
 21  2  1  0
 21  5  1  0
 19 15  1  0
  1 22  1  0
  1 23  1  0
  1 24  1  0
  3 25  1  0
  6 26  1  0
  7 27  1  0
  9 28  1  0
 13 29  1  0
 13 30  1  0
 13 31  1  0
 14 32  1  0
 14 33  1  0
 14 34  1  0
 16 35  1  0
 17 36  1  0
 20 37  1  0
M  END
>  <Energy>  (673) 
44.784702851399146

>  <compound_id>  (673) 
11649

>  <target_id>  (673) 
1

>  <reference_id>  (673) 
94

>  <inspiration_ids>  (673) 
[94, 59]

>  <energy_score>  (673) 
-24.06273623695131

>  <distance_score>  (673) 
13.303947651587096

>  <path>  (673) 
/opt/xchem-fragalysis-2/maxwin/BulkDock/SCRATCH/511014/C11649-P94/C11649-P94.minimised.mol

>  <scratch_subdir>  (673) 
/opt/xchem-fragalysis-2/maxwin/BulkDock/SCRATCH/511014/C11649-P94

>  <fragmenstein_runtime>  (673) 
13.421222686767578

>  <fragmenstein_outcome>  (673) 
too moved

>  <fragmenstein_mode>  (673) 
expansion

>  <fragmenstein_error>  (673) 


$$$$
C11649-P59
     RDKit          3D

 37 39  0  0  0  0  0  0  0  0999 V2000
  -12.2492  -17.2157   28.8305 C   0  0  0  0  0  0  0  0  0  0  0  0
  -12.1099  -16.3067   27.7427 N   0  0  0  0  0  0  0  0  0  0  0  0
  -13.3450  -15.6913   27.4414 C   0  0  0  0  0  0  0  0  0  0  0  0
  -13.1215  -14.6207   26.7822 N   0  0  0  0  0  0  0  0  0  0  0  0
  -11.8175  -14.5627   27.0518 C   0  0  0  0  0  0  0  0  0  0  0  0
  -11.1075  -13.5067   27.3773 C   0  0  0  0  0  0  0  0  0  0  0  0
   -9.5250  -13.6403   27.3882 C   0  0  0  0  0  0  0  0  0  0  0  0
   -8.1283  -14.2514   27.3379 C   0  0  0  0  0  0  0  0  0  0  0  0
   -7.7000  -12.7637   27.5615 N   0  0  0  0  0  0  0  0  0  0  0  0
   -6.3962  -11.9436   28.7057 C   0  0  0  0  0  0  0  0  0  0  0  0
   -5.5261  -12.4434   29.4291 O   0  0  0  0  0  0  0  0  0  0  0  0
   -6.8608   -9.7757   28.7295 C   0  0  0  0  0  0  0  0  0  0  0  0
   -6.9124   -9.7639   30.0793 C   0  0  0  0  0  0  0  0  0  0  0  0
   -8.6289   -9.0191   28.6877 C   0  0  0  0  0  0  0  0  0  0  0  0
   -6.6387   -8.4047   27.8363 C   0  0  0  0  0  0  0  0  0  0  0  0
   -7.4051   -7.8499   26.7915 C   0  0  0  0  0  0  0  0  0  0  0  0
   -7.6911   -6.5572   27.2486 C   0  0  0  0  0  0  0  0  0  0  0  0
   -6.8935   -6.2067   28.2490 N   0  0  0  0  0  0  0  0  0  0  0  0
   -6.1960   -7.3470   28.5653 O   0  0  0  0  0  0  0  0  0  0  0  0
   -9.2000  -15.3970   26.9553 C   0  0  0  0  0  0  0  0  0  0  0  0
  -10.9798  -15.6709   26.9588 C   0  0  0  0  0  0  0  0  0  0  0  0
  -12.6590  -18.1577   28.7522 H   0  0  0  0  0  0  0  0  0  0  0  0
  -11.4319  -17.7607   29.2144 H   0  0  0  0  0  0  0  0  0  0  0  0
  -12.6190  -16.6184   29.6670 H   0  0  0  0  0  0  0  0  0  0  0  0
  -14.3077  -16.0842   27.7421 H   0  0  0  0  0  0  0  0  0  0  0  0
  -11.6012  -12.5716   27.1159 H   0  0  0  0  0  0  0  0  0  0  0  0
   -9.6025  -12.6651   26.9028 H   0  0  0  0  0  0  0  0  0  0  0  0
   -8.2051  -12.0627   27.0364 H   0  0  0  0  0  0  0  0  0  0  0  0
   -6.4094  -10.6540   30.4371 H   0  0  0  0  0  0  0  0  0  0  0  0
   -7.9006  -10.0807   30.3470 H   0  0  0  0  0  0  0  0  0  0  0  0
   -6.4376   -8.8282   30.3811 H   0  0  0  0  0  0  0  0  0  0  0  0
   -8.6644   -7.9545   28.9360 H   0  0  0  0  0  0  0  0  0  0  0  0
   -9.0901   -9.0724   27.6926 H   0  0  0  0  0  0  0  0  0  0  0  0
   -9.3577   -9.4105   29.3991 H   0  0  0  0  0  0  0  0  0  0  0  0
   -7.9609   -8.4015   26.0448 H   0  0  0  0  0  0  0  0  0  0  0  0
   -8.4617   -5.8762   26.9154 H   0  0  0  0  0  0  0  0  0  0  0  0
   -8.7622  -16.3908   27.0716 H   0  0  0  0  0  0  0  0  0  0  0  0
  1  2  1  0
  2  3  1  0
  3  4  2  0
  4  5  1  0
  5  6  2  0
  6  7  1  0
  7  8  2  0
  8  9  1  0
  9 10  1  0
 10 11  2  0
 10 12  1  0
 12 13  1  0
 12 14  1  0
 12 15  1  0
 15 16  2  0
 16 17  1  0
 17 18  2  0
 18 19  1  0
  8 20  1  0
 20 21  2  0
 21  2  1  0
 21  5  1  0
 19 15  1  0
  1 22  1  0
  1 23  1  0
  1 24  1  0
  3 25  1  0
  6 26  1  0
  7 27  1  0
  9 28  1  0
 13 29  1  0
 13 30  1  0
 13 31  1  0
 14 32  1  0
 14 33  1  0
 14 34  1  0
 16 35  1  0
 17 36  1  0
 20 37  1  0
M  END
>  <Energy>  (674) 
777.93569294669419

>  <compound_id>  (674) 
11649

>  <target_id>  (674) 
1

>  <reference_id>  (674) 
59

>  <inspiration_ids>  (674) 
[94, 59]

>  <energy_score>  (674) 
709.0882538583558

>  <distance_score>  (674) 
9.987635449579606

>  <path>  (674) 
/opt/xchem-fragalysis-2/maxwin/BulkDock/SCRATCH/511014/C11649-P59/C11649-P59.minimised.mol

>  <scratch_subdir>  (674) 
/opt/xchem-fragalysis-2/maxwin/BulkDock/SCRATCH/511014/C11649-P59

>  <fragmenstein_runtime>  (674) 
23.98428511619568

>  <fragmenstein_outcome>  (674) 
too moved

>  <fragmenstein_mode>  (674) 
expansion

>  <fragmenstein_error>  (674) 


$$$$
C11651-P94
     RDKit          3D

 37 39  0  0  0  0  0  0  0  0999 V2000
   -5.4976  -16.7510   33.0549 C   0  0  0  0  0  0  0  0  0  0  0  0
   -6.4793  -16.9738   32.1210 C   0  0  0  0  0  0  0  0  0  0  0  0
   -5.8298  -15.6774   30.6179 C   0  0  0  0  0  0  0  0  0  0  0  0
   -5.2938  -16.2980   29.7539 O   0  0  0  0  0  0  0  0  0  0  0  0
   -5.8726  -13.9727   30.6866 N   0  0  0  0  0  0  0  0  0  0  0  0
   -5.0593  -12.7277   29.6910 C   0  0  0  0  0  0  0  0  0  0  0  0
   -3.2116  -12.2727   29.3221 C   0  0  0  0  0  0  0  0  0  0  0  0
   -1.9539  -11.3600   29.7434 C   0  0  0  0  0  0  0  0  0  0  0  0
   -1.4685  -10.4374   30.6815 C   0  0  0  0  0  0  0  0  0  0  0  0
   -0.2134  -10.0020   30.2222 C   0  0  0  0  0  0  0  0  0  0  0  0
    0.0829  -10.5587   29.0574 N   0  0  0  0  0  0  0  0  0  0  0  0
   -0.9642  -11.4122   28.7679 O   0  0  0  0  0  0  0  0  0  0  0  0
   -7.7786  -16.8807   33.4399 N   0  0  0  0  0  0  0  0  0  0  0  0
   -7.5400  -16.3205   34.7331 C   0  0  0  0  0  0  0  0  0  0  0  0
   -8.5076  -16.3605   35.6174 N   0  0  0  0  0  0  0  0  0  0  0  0
   -9.4840  -17.0533   35.0221 C   0  0  0  0  0  0  0  0  0  0  0  0
  -10.7794  -17.3262   35.5565 C   0  0  0  0  0  0  0  0  0  0  0  0
  -11.5937  -18.3528   35.0602 C   0  0  0  0  0  0  0  0  0  0  0  0
  -11.0778  -19.1656   34.0638 C   0  0  0  0  0  0  0  0  0  0  0  0
   -9.7527  -18.8825   33.4975 C   0  0  0  0  0  0  0  0  0  0  0  0
   -8.9595  -17.7037   33.8902 C   0  0  0  0  0  0  0  0  0  0  0  0
   -5.6251  -15.7811   33.4333 H   0  0  0  0  0  0  0  0  0  0  0  0
   -4.4636  -16.7848   32.7424 H   0  0  0  0  0  0  0  0  0  0  0  0
   -5.8591  -17.3668   33.8590 H   0  0  0  0  0  0  0  0  0  0  0  0
   -6.6167  -17.9865   31.7980 H   0  0  0  0  0  0  0  0  0  0  0  0
   -6.4527  -13.6938   31.4459 H   0  0  0  0  0  0  0  0  0  0  0  0
   -5.0752  -12.0016   30.5096 H   0  0  0  0  0  0  0  0  0  0  0  0
   -4.4090  -13.5467   29.8836 H   0  0  0  0  0  0  0  0  0  0  0  0
   -3.2549  -12.0662   28.2444 H   0  0  0  0  0  0  0  0  0  0  0  0
   -2.6382  -13.2010   29.4161 H   0  0  0  0  0  0  0  0  0  0  0  0
   -1.9711  -10.0433   31.5547 H   0  0  0  0  0  0  0  0  0  0  0  0
    0.4745   -9.2917   30.6593 H   0  0  0  0  0  0  0  0  0  0  0  0
   -6.6369  -15.8189   35.0022 H   0  0  0  0  0  0  0  0  0  0  0  0
  -11.0953  -16.7651   36.4294 H   0  0  0  0  0  0  0  0  0  0  0  0
  -12.5620  -18.5569   35.4998 H   0  0  0  0  0  0  0  0  0  0  0  0
  -11.6310  -20.0337   33.7148 H   0  0  0  0  0  0  0  0  0  0  0  0
   -9.3804  -19.6294   32.8215 H   0  0  0  0  0  0  0  0  0  0  0  0
  1  2  1  0
  2  3  1  0
  3  4  2  0
  3  5  1  0
  5  6  1  0
  6  7  1  0
  7  8  1  0
  8  9  2  0
  9 10  1  0
 10 11  2  0
 11 12  1  0
  2 13  1  0
 13 14  1  0
 14 15  2  0
 15 16  1  0
 16 17  2  0
 17 18  1  0
 18 19  2  0
 19 20  1  0
 20 21  2  0
 12  8  1  0
 21 13  1  0
 21 16  1  0
  1 22  1  0
  1 23  1  0
  1 24  1  0
  2 25  1  0
  5 26  1  0
  6 27  1  0
  6 28  1  0
  7 29  1  0
  7 30  1  0
  9 31  1  0
 10 32  1  0
 14 33  1  0
 17 34  1  0
 18 35  1  0
 19 36  1  0
 20 37  1  0
M  END
>  <Energy>  (675) 
456.42031117835518

>  <compound_id>  (675) 
11651

>  <target_id>  (675) 
1

>  <reference_id>  (675) 
94

>  <inspiration_ids>  (675) 
[94, 59]

>  <energy_score>  (675) 
413.24635898057034

>  <distance_score>  (675) 
9.373044055114175

>  <path>  (675) 
/opt/xchem-fragalysis-2/maxwin/BulkDock/SCRATCH/511014/C11651-P94/C11651-P94.minimised.mol

>  <scratch_subdir>  (675) 
/opt/xchem-fragalysis-2/maxwin/BulkDock/SCRATCH/511014/C11651-P94

>  <fragmenstein_runtime>  (675) 
13.218487977981567

>  <fragmenstein_outcome>  (675) 
too moved

>  <fragmenstein_mode>  (675) 
expansion

>  <fragmenstein_error>  (675) 


$$$$
C11651-P59
     RDKit          3D

 37 39  0  0  0  0  0  0  0  0999 V2000
  -11.4184  -16.0405   34.6561 C   0  0  0  0  0  0  0  0  0  0  0  0
   -9.8283  -15.9203   34.2246 C   0  0  0  0  0  0  0  0  0  0  0  0
   -9.2243  -14.2957   33.1424 C   0  0  0  0  0  0  0  0  0  0  0  0
   -9.7520  -14.2952   32.1347 O   0  0  0  0  0  0  0  0  0  0  0  0
   -7.9516  -13.0051   33.4194 N   0  0  0  0  0  0  0  0  0  0  0  0
   -7.3875  -12.0115   32.5677 C   0  0  0  0  0  0  0  0  0  0  0  0
   -5.8719  -11.0252   33.3927 C   0  0  0  0  0  0  0  0  0  0  0  0
   -5.1133  -10.2052   34.9083 C   0  0  0  0  0  0  0  0  0  0  0  0
   -4.0584   -9.2928   35.1086 C   0  0  0  0  0  0  0  0  0  0  0  0
   -4.0944   -8.9484   36.4641 C   0  0  0  0  0  0  0  0  0  0  0  0
   -5.0804   -9.5712   37.0974 N   0  0  0  0  0  0  0  0  0  0  0  0
   -5.6896  -10.3827   36.1552 O   0  0  0  0  0  0  0  0  0  0  0  0
   -9.5327  -17.7832   34.3658 N   0  0  0  0  0  0  0  0  0  0  0  0
   -9.1146  -18.6388   35.4449 C   0  0  0  0  0  0  0  0  0  0  0  0
   -8.8910  -19.9724   35.1064 N   0  0  0  0  0  0  0  0  0  0  0  0
   -9.4625  -20.2186   33.8359 C   0  0  0  0  0  0  0  0  0  0  0  0
   -9.9141  -21.4494   32.4351 C   0  0  0  0  0  0  0  0  0  0  0  0
  -10.8592  -21.5324   31.2526 C   0  0  0  0  0  0  0  0  0  0  0  0
  -11.2208  -20.3701   31.1622 C   0  0  0  0  0  0  0  0  0  0  0  0
  -10.7935  -19.3047   32.5708 C   0  0  0  0  0  0  0  0  0  0  0  0
   -9.9107  -18.9086   33.5910 C   0  0  0  0  0  0  0  0  0  0  0  0
  -11.7640  -17.0796   34.7170 H   0  0  0  0  0  0  0  0  0  0  0  0
  -11.7220  -15.6797   35.6395 H   0  0  0  0  0  0  0  0  0  0  0  0
  -12.0537  -15.4838   33.9682 H   0  0  0  0  0  0  0  0  0  0  0  0
   -9.8364  -16.2918   33.2124 H   0  0  0  0  0  0  0  0  0  0  0  0
   -7.5510  -13.1545   34.2249 H   0  0  0  0  0  0  0  0  0  0  0  0
   -6.9454  -12.6260   31.8107 H   0  0  0  0  0  0  0  0  0  0  0  0
   -8.2034  -11.3844   32.2398 H   0  0  0  0  0  0  0  0  0  0  0  0
   -5.6922  -10.2175   32.7628 H   0  0  0  0  0  0  0  0  0  0  0  0
   -6.4914  -10.7105   34.1783 H   0  0  0  0  0  0  0  0  0  0  0  0
   -3.3235   -8.9391   34.4032 H   0  0  0  0  0  0  0  0  0  0  0  0
   -3.4480   -8.2859   37.0221 H   0  0  0  0  0  0  0  0  0  0  0  0
   -8.9077  -18.2105   36.4171 H   0  0  0  0  0  0  0  0  0  0  0  0
   -9.5673  -22.5268   32.5756 H   0  0  0  0  0  0  0  0  0  0  0  0
  -11.2539  -22.2810   30.5869 H   0  0  0  0  0  0  0  0  0  0  0  0
  -12.2207  -20.5053   30.6793 H   0  0  0  0  0  0  0  0  0  0  0  0
  -11.7773  -18.8973   32.9679 H   0  0  0  0  0  0  0  0  0  0  0  0
  1  2  1  0
  2  3  1  0
  3  4  2  0
  3  5  1  0
  5  6  1  0
  6  7  1  0
  7  8  1  0
  8  9  2  0
  9 10  1  0
 10 11  2  0
 11 12  1  0
  2 13  1  0
 13 14  1  0
 14 15  2  0
 15 16  1  0
 16 17  2  0
 17 18  1  0
 18 19  2  0
 19 20  1  0
 20 21  2  0
 12  8  1  0
 21 13  1  0
 21 16  1  0
  1 22  1  0
  1 23  1  0
  1 24  1  0
  2 25  1  0
  5 26  1  0
  6 27  1  0
  6 28  1  0
  7 29  1  0
  7 30  1  0
  9 31  1  0
 10 32  1  0
 14 33  1  0
 17 34  1  0
 18 35  1  0
 19 36  1  0
 20 37  1  0
M  END
>  <Energy>  (676) 
729.90521264126016

>  <compound_id>  (676) 
11651

>  <target_id>  (676) 
1

>  <reference_id>  (676) 
59

>  <inspiration_ids>  (676) 
[94, 59]

>  <energy_score>  (676) 
686.7312604434877

>  <distance_score>  (676) 
8.424726940767655

>  <path>  (676) 
/opt/xchem-fragalysis-2/maxwin/BulkDock/SCRATCH/511014/C11651-P59/C11651-P59.minimised.mol

>  <scratch_subdir>  (676) 
/opt/xchem-fragalysis-2/maxwin/BulkDock/SCRATCH/511014/C11651-P59

>  <fragmenstein_runtime>  (676) 
14.313167572021484

>  <fragmenstein_outcome>  (676) 
too moved

>  <fragmenstein_mode>  (676) 
expansion

>  <fragmenstein_error>  (676) 


$$$$
C11618-P94
     RDKit          3D

 30 32  0  0  0  0  0  0  0  0999 V2000
  -12.3853  -17.4310   29.5780 O   0  0  0  0  0  0  0  0  0  0  0  0
  -12.0292  -18.1484   28.6803 C   0  0  0  0  0  0  0  0  0  0  0  0
  -11.5177  -17.3409   27.6351 O   0  0  0  0  0  0  0  0  0  0  0  0
  -12.3831  -15.9623   27.6100 C   0  0  0  0  0  0  0  0  0  0  0  0
  -11.8229  -14.7369   26.9609 C   0  0  0  0  0  0  0  0  0  0  0  0
  -10.7919  -14.3434   26.1481 C   0  0  0  0  0  0  0  0  0  0  0  0
  -11.0990  -12.9971   25.8278 C   0  0  0  0  0  0  0  0  0  0  0  0
  -12.1856  -12.5563   26.4505 N   0  0  0  0  0  0  0  0  0  0  0  0
  -12.6152  -13.6327   27.1925 O   0  0  0  0  0  0  0  0  0  0  0  0
  -12.1161  -20.2208   28.9798 C   0  0  0  0  0  0  0  0  0  0  0  0
  -11.8000  -21.4422   28.0075 C   0  0  0  0  0  0  0  0  0  0  0  0
  -11.6436  -22.8512   28.0635 C   0  0  0  0  0  0  0  0  0  0  0  0
  -11.7933  -23.4632   29.2487 C   0  0  0  0  0  0  0  0  0  0  0  0
  -11.9152  -22.5745   30.2837 C   0  0  0  0  0  0  0  0  0  0  0  0
  -12.1384  -22.9308   31.5885 N   0  0  0  0  0  0  0  0  0  0  0  0
  -12.0001  -21.8205   32.3333 C   0  0  0  0  0  0  0  0  0  0  0  0
  -12.4269  -21.8100   33.7374 C   0  0  0  0  0  0  0  0  0  0  0  0
  -12.1415  -23.0101   34.3022 F   0  0  0  0  0  0  0  0  0  0  0  0
  -13.7780  -21.6521   33.8294 F   0  0  0  0  0  0  0  0  0  0  0  0
  -11.5410  -20.8520   31.5774 N   0  0  0  0  0  0  0  0  0  0  0  0
  -11.8493  -21.1553   30.2348 C   0  0  0  0  0  0  0  0  0  0  0  0
  -13.3316  -16.1951   27.1049 H   0  0  0  0  0  0  0  0  0  0  0  0
  -12.7014  -15.6547   28.6128 H   0  0  0  0  0  0  0  0  0  0  0  0
   -9.9815  -14.9583   25.7907 H   0  0  0  0  0  0  0  0  0  0  0  0
  -10.6038  -12.2945   25.1791 H   0  0  0  0  0  0  0  0  0  0  0  0
  -11.6116  -21.2372   26.9513 H   0  0  0  0  0  0  0  0  0  0  0  0
  -11.4812  -23.4194   27.1525 H   0  0  0  0  0  0  0  0  0  0  0  0
  -11.7910  -24.5366   29.3741 H   0  0  0  0  0  0  0  0  0  0  0  0
  -12.4789  -23.8307   31.9115 H   0  0  0  0  0  0  0  0  0  0  0  0
  -11.9662  -21.0053   34.3100 H   0  0  0  0  0  0  0  0  0  0  0  0
  1  2  2  0
  2  3  1  0
  3  4  1  0
  4  5  1  0
  5  6  2  0
  6  7  1  0
  7  8  2  0
  8  9  1  0
  2 10  1  0
 10 11  2  0
 11 12  1  0
 12 13  2  0
 13 14  1  0
 14 15  1  0
 15 16  1  0
 16 17  1  0
 17 18  1  0
 17 19  1  0
 16 20  2  0
 20 21  1  0
  9  5  1  0
 21 10  1  0
 21 14  2  0
  4 22  1  0
  4 23  1  0
  6 24  1  0
  7 25  1  0
 11 26  1  0
 12 27  1  0
 13 28  1  0
 15 29  1  0
 17 30  1  0
M  END
>  <Energy>  (677) 
282.31143602072348

>  <compound_id>  (677) 
11618

>  <target_id>  (677) 
1

>  <reference_id>  (677) 
94

>  <inspiration_ids>  (677) 
[94, 59]

>  <energy_score>  (677) 
206.11189028347184

>  <distance_score>  (677) 
11.46750326309018

>  <path>  (677) 
/opt/xchem-fragalysis-2/maxwin/BulkDock/SCRATCH/511014/C11618-P94/C11618-P94.minimised.mol

>  <scratch_subdir>  (677) 
/opt/xchem-fragalysis-2/maxwin/BulkDock/SCRATCH/511014/C11618-P94

>  <fragmenstein_runtime>  (677) 
10.243424892425537

>  <fragmenstein_outcome>  (677) 
too moved

>  <fragmenstein_mode>  (677) 
expansion

>  <fragmenstein_error>  (677) 


$$$$
C11618-P59
     RDKit          3D

 30 32  0  0  0  0  0  0  0  0999 V2000
   -8.8831  -17.2972   27.7085 O   0  0  0  0  0  0  0  0  0  0  0  0
   -8.3198  -18.1979   28.3507 C   0  0  0  0  0  0  0  0  0  0  0  0
   -6.5327  -17.6427   28.7698 O   0  0  0  0  0  0  0  0  0  0  0  0
   -4.9517  -16.4096   29.0905 C   0  0  0  0  0  0  0  0  0  0  0  0
   -3.2123  -15.8347   28.2527 C   0  0  0  0  0  0  0  0  0  0  0  0
   -2.2662  -14.8219   28.5908 C   0  0  0  0  0  0  0  0  0  0  0  0
   -1.2055  -14.9379   27.6979 C   0  0  0  0  0  0  0  0  0  0  0  0
   -1.3224  -16.0320   26.9506 N   0  0  0  0  0  0  0  0  0  0  0  0
   -2.4836  -16.6906   27.3845 O   0  0  0  0  0  0  0  0  0  0  0  0
   -9.5663  -19.8576   28.4545 C   0  0  0  0  0  0  0  0  0  0  0  0
  -10.4328  -21.1069   27.7991 C   0  0  0  0  0  0  0  0  0  0  0  0
  -11.6253  -21.8874   27.6516 C   0  0  0  0  0  0  0  0  0  0  0  0
  -12.0914  -22.2181   28.8367 C   0  0  0  0  0  0  0  0  0  0  0  0
  -11.5605  -21.5848   29.8787 C   0  0  0  0  0  0  0  0  0  0  0  0
  -11.8519  -21.2622   31.1910 N   0  0  0  0  0  0  0  0  0  0  0  0
  -11.5247  -22.2678   32.7582 C   0  0  0  0  0  0  0  0  0  0  0  0
  -12.2180  -22.0264   35.1067 C   0  0  0  0  0  0  0  0  0  0  0  0
  -13.4404  -22.6353   35.6737 F   0  0  0  0  0  0  0  0  0  0  0  0
  -12.0803  -20.7160   35.8414 F   0  0  0  0  0  0  0  0  0  0  0  0
  -10.4640  -21.3218   31.6817 N   0  0  0  0  0  0  0  0  0  0  0  0
  -10.6345  -20.6382   29.8785 C   0  0  0  0  0  0  0  0  0  0  0  0
   -4.8652  -16.3468   30.1646 H   0  0  0  0  0  0  0  0  0  0  0  0
   -4.4219  -17.0954   28.3195 H   0  0  0  0  0  0  0  0  0  0  0  0
   -2.4353  -14.0928   29.3578 H   0  0  0  0  0  0  0  0  0  0  0  0
   -0.3374  -14.3085   27.5746 H   0  0  0  0  0  0  0  0  0  0  0  0
   -9.8615  -22.0554   28.2283 H   0  0  0  0  0  0  0  0  0  0  0  0
  -11.8291  -22.5232   26.7985 H   0  0  0  0  0  0  0  0  0  0  0  0
  -12.6155  -23.1126   28.9654 H   0  0  0  0  0  0  0  0  0  0  0  0
  -12.8142  -21.0644   31.3120 H   0  0  0  0  0  0  0  0  0  0  0  0
  -11.6978  -22.6432   35.9439 H   0  0  0  0  0  0  0  0  0  0  0  0
  1  2  2  0
  2  3  1  0
  3  4  1  0
  4  5  1  0
  5  6  2  0
  6  7  1  0
  7  8  2  0
  8  9  1  0
  2 10  1  0
 10 11  2  0
 11 12  1  0
 12 13  2  0
 13 14  1  0
 14 15  1  0
 15 16  1  0
 16 17  1  0
 17 18  1  0
 17 19  1  0
 16 20  2  0
 20 21  1  0
  9  5  1  0
 21 10  1  0
 21 14  2  0
  4 22  1  0
  4 23  1  0
  6 24  1  0
  7 25  1  0
 11 26  1  0
 12 27  1  0
 13 28  1  0
 15 29  1  0
 17 30  1  0
M  END
>  <Energy>  (678) 
1707.6445014510043

>  <compound_id>  (678) 
11618

>  <target_id>  (678) 
1

>  <reference_id>  (678) 
59

>  <inspiration_ids>  (678) 
[94, 59]

>  <energy_score>  (678) 
1631.4449557137666

>  <distance_score>  (678) 
10.318284705690955

>  <path>  (678) 
/opt/xchem-fragalysis-2/maxwin/BulkDock/SCRATCH/511014/C11618-P59/C11618-P59.minimised.mol

>  <scratch_subdir>  (678) 
/opt/xchem-fragalysis-2/maxwin/BulkDock/SCRATCH/511014/C11618-P59

>  <fragmenstein_runtime>  (678) 
14.026549816131592

>  <fragmenstein_outcome>  (678) 
too moved

>  <fragmenstein_mode>  (678) 
expansion

>  <fragmenstein_error>  (678) 


$$$$
C17441-P66
     RDKit          3D

 45 47  0  0  0  0  0  0  0  0999 V2000
   -2.1565  -14.3525   25.9402 O   0  0  0  0  0  0  0  0  0  0  0  0
   -1.3564  -14.7728   26.7613 C   0  0  0  0  0  0  0  0  0  0  0  0
   -1.7579  -15.6505   28.0936 N   0  0  0  0  0  0  0  0  0  0  0  0
   -3.5766  -16.1745   28.8895 C   0  0  0  0  0  0  0  0  0  0  0  0
   -4.6882  -16.8375   30.5746 C   0  0  0  0  0  0  0  0  0  0  0  0
   -5.7936  -16.3233   31.4529 C   0  0  0  0  0  0  0  0  0  0  0  0
   -5.5001  -16.2589   33.0194 C   0  0  0  0  0  0  0  0  0  0  0  0
   -6.6549  -16.8852   33.6366 C   0  0  0  0  0  0  0  0  0  0  0  0
   -6.4370  -18.1516   33.0728 N   0  0  0  0  0  0  0  0  0  0  0  0
   -7.3302  -19.0181   33.7007 C   0  0  0  0  0  0  0  0  0  0  0  0
   -8.5755  -18.4886   33.8544 N   0  0  0  0  0  0  0  0  0  0  0  0
   -9.6388  -19.2079   33.3608 C   0  0  0  0  0  0  0  0  0  0  0  0
   -9.5251  -20.4322   32.7545 C   0  0  0  0  0  0  0  0  0  0  0  0
   -8.2524  -21.0584   33.2042 C   0  0  0  0  0  0  0  0  0  0  0  0
   -7.1589  -20.3557   33.5968 N   0  0  0  0  0  0  0  0  0  0  0  0
   -5.2555  -18.3388   31.8336 C   0  0  0  0  0  0  0  0  0  0  0  0
    0.6880  -14.0969   26.5254 N   0  0  0  0  0  0  0  0  0  0  0  0
    1.5032  -12.8061   25.3067 N   0  0  0  0  0  0  0  0  0  0  0  0
    2.8125  -12.9783   23.9557 C   0  0  0  0  0  0  0  0  0  0  0  0
    3.2022  -14.0755   23.6976 O   0  0  0  0  0  0  0  0  0  0  0  0
    3.6969  -11.6659   22.7679 C   0  0  0  0  0  0  0  0  0  0  0  0
    3.8079  -10.0307   22.2811 C   0  0  0  0  0  0  0  0  0  0  0  0
    4.7706   -9.6205   21.1951 C   0  0  0  0  0  0  0  0  0  0  0  0
    5.8187  -10.4762   21.2649 C   0  0  0  0  0  0  0  0  0  0  0  0
    5.7076  -10.5628   22.9950 S   0  0  0  0  0  0  0  0  0  0  0  0
   -0.9252  -15.7928   28.6425 H   0  0  0  0  0  0  0  0  0  0  0  0
   -3.3481  -15.2859   29.5581 H   0  0  0  0  0  0  0  0  0  0  0  0
   -4.1208  -16.4828   28.0160 H   0  0  0  0  0  0  0  0  0  0  0  0
   -5.4943  -16.9579   29.8027 H   0  0  0  0  0  0  0  0  0  0  0  0
   -6.4876  -17.1395   31.2855 H   0  0  0  0  0  0  0  0  0  0  0  0
   -6.1182  -15.3671   30.9891 H   0  0  0  0  0  0  0  0  0  0  0  0
   -5.3124  -15.4600   33.7303 H   0  0  0  0  0  0  0  0  0  0  0  0
   -4.4875  -16.6365   33.0439 H   0  0  0  0  0  0  0  0  0  0  0  0
   -7.5865  -16.3808   33.3545 H   0  0  0  0  0  0  0  0  0  0  0  0
   -6.6344  -16.8664   34.7349 H   0  0  0  0  0  0  0  0  0  0  0  0
  -10.6151  -18.8208   33.6182 H   0  0  0  0  0  0  0  0  0  0  0  0
  -10.3755  -20.9902   32.3739 H   0  0  0  0  0  0  0  0  0  0  0  0
   -8.1190  -22.1333   33.2411 H   0  0  0  0  0  0  0  0  0  0  0  0
   -4.3416  -18.7399   32.2977 H   0  0  0  0  0  0  0  0  0  0  0  0
   -5.7267  -19.1189   31.2556 H   0  0  0  0  0  0  0  0  0  0  0  0
    1.2497  -14.5604   27.1326 H   0  0  0  0  0  0  0  0  0  0  0  0
    1.3382  -11.8317   25.4678 H   0  0  0  0  0  0  0  0  0  0  0  0
    2.9879   -9.3315   22.2609 H   0  0  0  0  0  0  0  0  0  0  0  0
    4.6063   -8.8075   20.4994 H   0  0  0  0  0  0  0  0  0  0  0  0
    6.7316  -10.5164   20.6872 H   0  0  0  0  0  0  0  0  0  0  0  0
  1  2  2  0
  2  3  1  0
  3  4  1  0
  4  5  1  0
  5  6  1  0
  6  7  1  0
  7  8  1  0
  8  9  1  0
  9 10  1  0
 10 11  2  0
 11 12  1  0
 12 13  2  0
 13 14  1  0
 14 15  2  0
  9 16  1  0
  2 17  1  0
 17 18  1  0
 18 19  1  0
 19 20  2  0
 19 21  1  0
 21 22  2  0
 22 23  1  0
 23 24  2  0
 24 25  1  0
 16  5  1  0
 25 21  1  0
 15 10  1  0
  3 26  1  0
  4 27  1  0
  4 28  1  0
  5 29  1  0
  6 30  1  0
  6 31  1  0
  7 32  1  0
  7 33  1  0
  8 34  1  0
  8 35  1  0
 12 36  1  0
 13 37  1  0
 14 38  1  0
 16 39  1  0
 16 40  1  0
 17 41  1  0
 18 42  1  0
 22 43  1  0
 23 44  1  0
 24 45  1  0
M  END
>  <Energy>  (679) 
1155.5312021361747

>  <compound_id>  (679) 
17441

>  <target_id>  (679) 
1

>  <reference_id>  (679) 
66

>  <inspiration_ids>  (679) 
[66, 54]

>  <energy_score>  (679) 
1198.4809185746735

>  <distance_score>  (679) 
11.309691439458335

>  <path>  (679) 
/opt/xchem-fragalysis-2/maxwin/BulkDock/SCRATCH/511014/C17441-P66/C17441-P66.minimised.mol

>  <scratch_subdir>  (679) 
/opt/xchem-fragalysis-2/maxwin/BulkDock/SCRATCH/511014/C17441-P66

>  <fragmenstein_runtime>  (679) 
40.48163914680481

>  <fragmenstein_outcome>  (679) 
too moved

>  <fragmenstein_mode>  (679) 
expansion

>  <fragmenstein_error>  (679) 


$$$$
C17441-P54
     RDKit          3D

 45 47  0  0  0  0  0  0  0  0999 V2000
    1.9684  -15.9183   25.4270 O   0  0  0  0  0  0  0  0  0  0  0  0
    1.0883  -15.3399   25.7950 C   0  0  0  0  0  0  0  0  0  0  0  0
   -0.5698  -15.9505   26.6695 N   0  0  0  0  0  0  0  0  0  0  0  0
   -1.1936  -17.8720   27.4222 C   0  0  0  0  0  0  0  0  0  0  0  0
   -2.3406  -18.7675   29.1587 C   0  0  0  0  0  0  0  0  0  0  0  0
   -3.2082  -19.9167   30.7454 C   0  0  0  0  0  0  0  0  0  0  0  0
   -4.4074  -20.8596   31.4779 C   0  0  0  0  0  0  0  0  0  0  0  0
   -5.3413  -21.7570   30.6481 C   0  0  0  0  0  0  0  0  0  0  0  0
   -4.8714  -21.9538   29.2800 N   0  0  0  0  0  0  0  0  0  0  0  0
   -6.4939  -21.9172   28.8347 C   0  0  0  0  0  0  0  0  0  0  0  0
   -7.2751  -21.0753   28.1002 N   0  0  0  0  0  0  0  0  0  0  0  0
   -8.7896  -21.5606   28.0838 C   0  0  0  0  0  0  0  0  0  0  0  0
   -9.4354  -22.7037   28.4837 C   0  0  0  0  0  0  0  0  0  0  0  0
   -8.5648  -23.4915   29.1173 C   0  0  0  0  0  0  0  0  0  0  0  0
   -7.2548  -23.1257   29.2587 N   0  0  0  0  0  0  0  0  0  0  0  0
   -3.4668  -20.6759   29.3065 C   0  0  0  0  0  0  0  0  0  0  0  0
    1.4097  -13.6503   25.7306 N   0  0  0  0  0  0  0  0  0  0  0  0
    3.0301  -12.5960   25.2844 N   0  0  0  0  0  0  0  0  0  0  0  0
    3.6382  -11.9572   23.6832 C   0  0  0  0  0  0  0  0  0  0  0  0
    3.1530  -12.1715   22.5885 O   0  0  0  0  0  0  0  0  0  0  0  0
    4.9897  -10.7612   23.5121 C   0  0  0  0  0  0  0  0  0  0  0  0
    5.4716   -9.5968   24.1365 C   0  0  0  0  0  0  0  0  0  0  0  0
    6.5386   -8.9363   23.4308 C   0  0  0  0  0  0  0  0  0  0  0  0
    6.8941   -9.5892   22.2776 C   0  0  0  0  0  0  0  0  0  0  0  0
    5.9515  -10.9884   22.0028 S   0  0  0  0  0  0  0  0  0  0  0  0
   -1.1647  -15.2302   26.7658 H   0  0  0  0  0  0  0  0  0  0  0  0
   -0.3172  -18.4780   27.5206 H   0  0  0  0  0  0  0  0  0  0  0  0
   -1.6565  -17.9874   26.4628 H   0  0  0  0  0  0  0  0  0  0  0  0
   -1.2998  -18.8468   29.4078 H   0  0  0  0  0  0  0  0  0  0  0  0
   -2.5977  -20.3505   31.5346 H   0  0  0  0  0  0  0  0  0  0  0  0
   -3.6252  -19.2152   31.5386 H   0  0  0  0  0  0  0  0  0  0  0  0
   -5.1397  -20.5178   32.1011 H   0  0  0  0  0  0  0  0  0  0  0  0
   -3.9614  -21.3586   32.3303 H   0  0  0  0  0  0  0  0  0  0  0  0
   -5.4634  -22.2605   31.6040 H   0  0  0  0  0  0  0  0  0  0  0  0
   -6.4968  -22.1715   30.6768 H   0  0  0  0  0  0  0  0  0  0  0  0
   -9.4909  -20.7037   28.0504 H   0  0  0  0  0  0  0  0  0  0  0  0
  -10.4986  -22.8588   28.4417 H   0  0  0  0  0  0  0  0  0  0  0  0
   -8.8379  -24.4285   29.5818 H   0  0  0  0  0  0  0  0  0  0  0  0
   -2.7029  -21.5146   29.1364 H   0  0  0  0  0  0  0  0  0  0  0  0
   -4.1226  -20.5560   28.3384 H   0  0  0  0  0  0  0  0  0  0  0  0
    0.6891  -13.2308   26.1231 H   0  0  0  0  0  0  0  0  0  0  0  0
    3.6711  -12.3349   26.0202 H   0  0  0  0  0  0  0  0  0  0  0  0
    5.0452   -9.1928   25.0481 H   0  0  0  0  0  0  0  0  0  0  0  0
    7.0133   -8.0241   23.7713 H   0  0  0  0  0  0  0  0  0  0  0  0
    7.6667   -9.3186   21.5722 H   0  0  0  0  0  0  0  0  0  0  0  0
  1  2  2  0
  2  3  1  0
  3  4  1  0
  4  5  1  0
  5  6  1  0
  6  7  1  0
  7  8  1  0
  8  9  1  0
  9 10  1  0
 10 11  2  0
 11 12  1  0
 12 13  2  0
 13 14  1  0
 14 15  2  0
  9 16  1  0
  2 17  1  0
 17 18  1  0
 18 19  1  0
 19 20  2  0
 19 21  1  0
 21 22  2  0
 22 23  1  0
 23 24  2  0
 24 25  1  0
 16  5  1  0
 25 21  1  0
 15 10  1  0
  3 26  1  0
  4 27  1  0
  4 28  1  0
  5 29  1  0
  6 30  1  0
  6 31  1  0
  7 32  1  0
  7 33  1  0
  8 34  1  0
  8 35  1  0
 12 36  1  0
 13 37  1  0
 14 38  1  0
 16 39  1  0
 16 40  1  0
 17 41  1  0
 18 42  1  0
 22 43  1  0
 23 44  1  0
 24 45  1  0
M  END
>  <Energy>  (680) 
1476.2881601767012

>  <compound_id>  (680) 
17441

>  <target_id>  (680) 
1

>  <reference_id>  (680) 
54

>  <inspiration_ids>  (680) 
[66, 54]

>  <energy_score>  (680) 
1519.2378766152228

>  <distance_score>  (680) 
10.388848136956678

>  <path>  (680) 
/opt/xchem-fragalysis-2/maxwin/BulkDock/SCRATCH/511014/C17441-P54/C17441-P54.minimised.mol

>  <scratch_subdir>  (680) 
/opt/xchem-fragalysis-2/maxwin/BulkDock/SCRATCH/511014/C17441-P54

>  <fragmenstein_runtime>  (680) 
28.48569083213806

>  <fragmenstein_outcome>  (680) 
too moved

>  <fragmenstein_mode>  (680) 
expansion

>  <fragmenstein_error>  (680) 


$$$$
C17447-P66
     RDKit          3D

 44 45  0  0  0  0  0  0  0  0999 V2000
   -3.1889   -8.9869   31.1052 C   0  0  0  0  0  0  0  0  0  0  0  0
   -2.1159   -9.4262   30.1051 C   0  0  0  0  0  0  0  0  0  0  0  0
   -1.8433   -8.5858   28.9011 N   0  0  0  0  0  0  0  0  0  0  0  0
   -2.8946   -9.5888   28.2480 C   0  0  0  0  0  0  0  0  0  0  0  0
   -4.2919  -10.3663   28.7390 C   0  0  0  0  0  0  0  0  0  0  0  0
   -4.1818  -11.4541   29.7209 N   0  0  0  0  0  0  0  0  0  0  0  0
   -5.2940  -12.0939   30.2450 C   0  0  0  0  0  0  0  0  0  0  0  0
   -6.5335  -11.6668   29.9642 N   0  0  0  0  0  0  0  0  0  0  0  0
   -7.5558  -12.2814   30.5977 C   0  0  0  0  0  0  0  0  0  0  0  0
   -7.3884  -13.2882   31.5119 C   0  0  0  0  0  0  0  0  0  0  0  0
   -6.0929  -13.7072   31.6782 C   0  0  0  0  0  0  0  0  0  0  0  0
   -5.0448  -13.1418   31.0476 N   0  0  0  0  0  0  0  0  0  0  0  0
   -0.6352   -8.4862   28.0519 C   0  0  0  0  0  0  0  0  0  0  0  0
    0.3927   -9.1273   28.0722 O   0  0  0  0  0  0  0  0  0  0  0  0
   -0.5966   -7.2795   26.9957 C   0  0  0  0  0  0  0  0  0  0  0  0
    0.8875   -6.6602   26.7800 C   0  0  0  0  0  0  0  0  0  0  0  0
    1.4606   -6.2834   25.3941 C   0  0  0  0  0  0  0  0  0  0  0  0
    0.9740   -6.3888   24.1035 C   0  0  0  0  0  0  0  0  0  0  0  0
    1.9092   -5.9658   23.0960 C   0  0  0  0  0  0  0  0  0  0  0  0
    3.0969   -5.5236   23.6318 C   0  0  0  0  0  0  0  0  0  0  0  0
    4.3073   -5.0214   22.9263 C   0  0  0  0  0  0  0  0  0  0  0  0
    3.0704   -5.6082   25.3401 S   0  0  0  0  0  0  0  0  0  0  0  0
   -4.1317   -8.6803   30.6547 H   0  0  0  0  0  0  0  0  0  0  0  0
   -3.3723   -9.7718   31.8452 H   0  0  0  0  0  0  0  0  0  0  0  0
   -2.8309   -8.1073   31.6546 H   0  0  0  0  0  0  0  0  0  0  0  0
   -1.9903  -10.5042   29.9837 H   0  0  0  0  0  0  0  0  0  0  0  0
   -1.1864   -9.2448   30.6730 H   0  0  0  0  0  0  0  0  0  0  0  0
   -2.2783  -10.3261   27.7488 H   0  0  0  0  0  0  0  0  0  0  0  0
   -3.2584   -8.9693   27.4128 H   0  0  0  0  0  0  0  0  0  0  0  0
   -4.7062  -10.7993   27.8187 H   0  0  0  0  0  0  0  0  0  0  0  0
   -5.0079   -9.6048   29.0653 H   0  0  0  0  0  0  0  0  0  0  0  0
   -3.3979  -12.0982   29.6940 H   0  0  0  0  0  0  0  0  0  0  0  0
   -8.5434  -11.8992   30.3580 H   0  0  0  0  0  0  0  0  0  0  0  0
   -8.2172  -13.7381   32.0385 H   0  0  0  0  0  0  0  0  0  0  0  0
   -5.8426  -14.5237   32.3492 H   0  0  0  0  0  0  0  0  0  0  0  0
   -1.2606   -6.4864   27.3558 H   0  0  0  0  0  0  0  0  0  0  0  0
   -0.9912   -7.6544   26.0486 H   0  0  0  0  0  0  0  0  0  0  0  0
    0.9092   -5.7433   27.3865 H   0  0  0  0  0  0  0  0  0  0  0  0
    1.6207   -7.3310   27.2426 H   0  0  0  0  0  0  0  0  0  0  0  0
   -0.0063   -6.7852   23.8705 H   0  0  0  0  0  0  0  0  0  0  0  0
    1.7070   -6.0048   22.0321 H   0  0  0  0  0  0  0  0  0  0  0  0
    5.1646   -5.6764   23.1146 H   0  0  0  0  0  0  0  0  0  0  0  0
    4.5613   -4.0093   23.2579 H   0  0  0  0  0  0  0  0  0  0  0  0
    4.1436   -4.9870   21.8440 H   0  0  0  0  0  0  0  0  0  0  0  0
  1  2  1  0
  2  3  1  0
  3  4  1  0
  4  5  1  0
  5  6  1  0
  6  7  1  0
  7  8  2  0
  8  9  1  0
  9 10  2  0
 10 11  1  0
 11 12  2  0
  3 13  1  0
 13 14  2  0
 13 15  1  0
 15 16  1  0
 16 17  1  0
 17 18  2  0
 18 19  1  0
 19 20  2  0
 20 21  1  0
 20 22  1  0
 12  7  1  0
 22 17  1  0
  1 23  1  0
  1 24  1  0
  1 25  1  0
  2 26  1  0
  2 27  1  0
  4 28  1  0
  4 29  1  0
  5 30  1  0
  5 31  1  0
  6 32  1  0
  9 33  1  0
 10 34  1  0
 11 35  1  0
 15 36  1  0
 15 37  1  0
 16 38  1  0
 16 39  1  0
 18 40  1  0
 19 41  1  0
 21 42  1  0
 21 43  1  0
 21 44  1  0
M  END
>  <Energy>  (681) 
43.71204127608263

>  <compound_id>  (681) 
17447

>  <target_id>  (681) 
1

>  <reference_id>  (681) 
66

>  <inspiration_ids>  (681) 
[66, 54]

>  <energy_score>  (681) 
75.30701187604217

>  <distance_score>  (681) 
14.699933879241861

>  <path>  (681) 
/opt/xchem-fragalysis-2/maxwin/BulkDock/SCRATCH/511014/C17447-P66/C17447-P66.minimised.mol

>  <scratch_subdir>  (681) 
/opt/xchem-fragalysis-2/maxwin/BulkDock/SCRATCH/511014/C17447-P66

>  <fragmenstein_runtime>  (681) 
41.738909006118774

>  <fragmenstein_outcome>  (681) 
too moved

>  <fragmenstein_mode>  (681) 
expansion

>  <fragmenstein_error>  (681) 


$$$$
C17447-P54
     RDKit          3D

 44 45  0  0  0  0  0  0  0  0999 V2000
   -4.3664  -16.4806   21.7675 C   0  0  0  0  0  0  0  0  0  0  0  0
   -4.1615  -15.0584   22.3349 C   0  0  0  0  0  0  0  0  0  0  0  0
   -3.6806  -14.0123   21.4337 N   0  0  0  0  0  0  0  0  0  0  0  0
   -5.2772  -13.9097   21.1012 C   0  0  0  0  0  0  0  0  0  0  0  0
   -6.5903  -14.0064   22.1635 C   0  0  0  0  0  0  0  0  0  0  0  0
   -6.9966  -15.3039   22.7839 N   0  0  0  0  0  0  0  0  0  0  0  0
   -7.7823  -16.2150   22.1023 C   0  0  0  0  0  0  0  0  0  0  0  0
   -8.8840  -15.8364   21.4539 N   0  0  0  0  0  0  0  0  0  0  0  0
   -9.5864  -16.8137   20.8362 C   0  0  0  0  0  0  0  0  0  0  0  0
   -9.2416  -18.1424   20.8425 C   0  0  0  0  0  0  0  0  0  0  0  0
   -8.0972  -18.4269   21.5286 C   0  0  0  0  0  0  0  0  0  0  0  0
   -7.3836  -17.4922   22.1895 N   0  0  0  0  0  0  0  0  0  0  0  0
   -3.1280  -12.6886   21.7183 C   0  0  0  0  0  0  0  0  0  0  0  0
   -3.0162  -12.0966   22.7652 O   0  0  0  0  0  0  0  0  0  0  0  0
   -2.4629  -11.9554   20.4458 C   0  0  0  0  0  0  0  0  0  0  0  0
   -1.1969  -11.0511   20.8859 C   0  0  0  0  0  0  0  0  0  0  0  0
   -0.2001  -10.4554   19.8674 C   0  0  0  0  0  0  0  0  0  0  0  0
   -0.2192   -9.2143   19.2424 C   0  0  0  0  0  0  0  0  0  0  0  0
    0.9893   -8.9038   18.5339 C   0  0  0  0  0  0  0  0  0  0  0  0
    1.9154   -9.9185   18.6253 C   0  0  0  0  0  0  0  0  0  0  0  0
    3.2804   -9.9920   18.0359 C   0  0  0  0  0  0  0  0  0  0  0  0
    1.3189  -11.2234   19.5661 S   0  0  0  0  0  0  0  0  0  0  0  0
   -4.5713  -17.2122   22.5498 H   0  0  0  0  0  0  0  0  0  0  0  0
   -3.4709  -16.8182   21.2366 H   0  0  0  0  0  0  0  0  0  0  0  0
   -5.1731  -16.5371   21.0348 H   0  0  0  0  0  0  0  0  0  0  0  0
   -3.2930  -15.1731   22.9842 H   0  0  0  0  0  0  0  0  0  0  0  0
   -4.7799  -14.6806   23.1471 H   0  0  0  0  0  0  0  0  0  0  0  0
   -5.4614  -14.5949   20.2617 H   0  0  0  0  0  0  0  0  0  0  0  0
   -5.3717  -12.9035   20.6673 H   0  0  0  0  0  0  0  0  0  0  0  0
   -7.4474  -13.5992   21.6122 H   0  0  0  0  0  0  0  0  0  0  0  0
   -6.3906  -13.2946   22.9749 H   0  0  0  0  0  0  0  0  0  0  0  0
   -6.2910  -15.8667   23.2448 H   0  0  0  0  0  0  0  0  0  0  0  0
  -10.4705  -16.4766   20.3018 H   0  0  0  0  0  0  0  0  0  0  0  0
   -9.8229  -18.9003   20.3372 H   0  0  0  0  0  0  0  0  0  0  0  0
   -7.7061  -19.4393   21.5786 H   0  0  0  0  0  0  0  0  0  0  0  0
   -2.1256  -12.7219   19.7407 H   0  0  0  0  0  0  0  0  0  0  0  0
   -3.2210  -11.3293   19.9662 H   0  0  0  0  0  0  0  0  0  0  0  0
   -0.6187  -11.6383   21.6120 H   0  0  0  0  0  0  0  0  0  0  0  0
   -1.6015  -10.2078   21.4634 H   0  0  0  0  0  0  0  0  0  0  0  0
   -1.0579   -8.5327   19.3234 H   0  0  0  0  0  0  0  0  0  0  0  0
    1.1574   -7.9789   17.9956 H   0  0  0  0  0  0  0  0  0  0  0  0
    3.3867  -10.8803   17.4047 H   0  0  0  0  0  0  0  0  0  0  0  0
    3.4852   -9.1149   17.4133 H   0  0  0  0  0  0  0  0  0  0  0  0
    4.0402  -10.0290   18.8235 H   0  0  0  0  0  0  0  0  0  0  0  0
  1  2  1  0
  2  3  1  0
  3  4  1  0
  4  5  1  0
  5  6  1  0
  6  7  1  0
  7  8  2  0
  8  9  1  0
  9 10  2  0
 10 11  1  0
 11 12  2  0
  3 13  1  0
 13 14  2  0
 13 15  1  0
 15 16  1  0
 16 17  1  0
 17 18  2  0
 18 19  1  0
 19 20  2  0
 20 21  1  0
 20 22  1  0
 12  7  1  0
 22 17  1  0
  1 23  1  0
  1 24  1  0
  1 25  1  0
  2 26  1  0
  2 27  1  0
  4 28  1  0
  4 29  1  0
  5 30  1  0
  5 31  1  0
  6 32  1  0
  9 33  1  0
 10 34  1  0
 11 35  1  0
 15 36  1  0
 15 37  1  0
 16 38  1  0
 16 39  1  0
 18 40  1  0
 19 41  1  0
 21 42  1  0
 21 43  1  0
 21 44  1  0
M  END
>  <Energy>  (682) 
42.931219073273354

>  <compound_id>  (682) 
17447

>  <target_id>  (682) 
1

>  <reference_id>  (682) 
54

>  <inspiration_ids>  (682) 
[66, 54]

>  <energy_score>  (682) 
74.52618967323798

>  <distance_score>  (682) 
14.278417496156617

>  <path>  (682) 
/opt/xchem-fragalysis-2/maxwin/BulkDock/SCRATCH/511014/C17447-P54/C17447-P54.minimised.mol

>  <scratch_subdir>  (682) 
/opt/xchem-fragalysis-2/maxwin/BulkDock/SCRATCH/511014/C17447-P54

>  <fragmenstein_runtime>  (682) 
42.2290415763855

>  <fragmenstein_outcome>  (682) 
too moved

>  <fragmenstein_mode>  (682) 
expansion

>  <fragmenstein_error>  (682) 


$$$$
C17448-P66
     RDKit          3D

 41 44  0  0  0  0  0  0  0  0999 V2000
    1.7610  -13.3972   23.9054 O   0  0  0  0  0  0  0  0  0  0  0  0
    0.7940  -14.1994   23.8488 C   0  0  0  0  0  0  0  0  0  0  0  0
   -0.4226  -14.2433   24.5502 C   0  0  0  0  0  0  0  0  0  0  0  0
   -1.7559  -15.5789   24.4087 O   0  0  0  0  0  0  0  0  0  0  0  0
   -3.4005  -15.9061   25.0690 C   0  0  0  0  0  0  0  0  0  0  0  0
   -5.3522  -15.5498   24.2859 C   0  0  0  0  0  0  0  0  0  0  0  0
   -7.2312  -15.5703   25.5996 C   0  0  0  0  0  0  0  0  0  0  0  0
   -7.2308  -16.9078   27.3040 N   0  0  0  0  0  0  0  0  0  0  0  0
   -8.2165  -18.0953   27.9000 C   0  0  0  0  0  0  0  0  0  0  0  0
   -9.2674  -18.8465   27.9358 N   0  0  0  0  0  0  0  0  0  0  0  0
   -9.4329  -20.7159   27.7217 C   0  0  0  0  0  0  0  0  0  0  0  0
   -8.1043  -21.6737   27.6277 C   0  0  0  0  0  0  0  0  0  0  0  0
   -7.3479  -20.6511   27.6562 C   0  0  0  0  0  0  0  0  0  0  0  0
   -8.1099  -19.2678   28.2444 N   0  0  0  0  0  0  0  0  0  0  0  0
   -5.4575  -18.0209   27.3670 C   0  0  0  0  0  0  0  0  0  0  0  0
   -3.6192  -17.0055   26.9179 C   0  0  0  0  0  0  0  0  0  0  0  0
   -2.1758  -14.5076   25.1120 C   0  0  0  0  0  0  0  0  0  0  0  0
   -0.7341  -14.0240   23.5820 N   0  0  0  0  0  0  0  0  0  0  0  0
   -0.4442  -12.4400   22.5310 C   0  0  0  0  0  0  0  0  0  0  0  0
    0.5343  -11.1683   22.3465 C   0  0  0  0  0  0  0  0  0  0  0  0
    0.2423  -10.0993   21.4446 C   0  0  0  0  0  0  0  0  0  0  0  0
   -1.2732  -10.1530   20.7441 S   0  0  0  0  0  0  0  0  0  0  0  0
   -1.5110  -11.7799   21.2729 C   0  0  0  0  0  0  0  0  0  0  0  0
   -0.8568  -13.4474   25.3907 H   0  0  0  0  0  0  0  0  0  0  0  0
    0.6431  -13.8730   25.3976 H   0  0  0  0  0  0  0  0  0  0  0  0
   -5.9001  -15.9717   23.3132 H   0  0  0  0  0  0  0  0  0  0  0  0
   -5.2119  -14.6894   23.5549 H   0  0  0  0  0  0  0  0  0  0  0  0
   -8.1007  -15.8897   24.9920 H   0  0  0  0  0  0  0  0  0  0  0  0
   -7.4898  -14.5232   25.9165 H   0  0  0  0  0  0  0  0  0  0  0  0
  -10.3545  -21.2574   28.0666 H   0  0  0  0  0  0  0  0  0  0  0  0
   -7.9776  -22.7173   27.6138 H   0  0  0  0  0  0  0  0  0  0  0  0
   -6.2660  -20.6606   27.5138 H   0  0  0  0  0  0  0  0  0  0  0  0
   -5.1147  -18.0085   28.4463 H   0  0  0  0  0  0  0  0  0  0  0  0
   -5.6724  -18.9804   26.8436 H   0  0  0  0  0  0  0  0  0  0  0  0
   -2.6996  -17.6552   26.9478 H   0  0  0  0  0  0  0  0  0  0  0  0
   -3.4032  -16.4551   27.8573 H   0  0  0  0  0  0  0  0  0  0  0  0
   -2.5487  -13.4712   25.4701 H   0  0  0  0  0  0  0  0  0  0  0  0
   -1.9294  -14.7438   26.1630 H   0  0  0  0  0  0  0  0  0  0  0  0
    1.5814  -11.4724   22.5175 H   0  0  0  0  0  0  0  0  0  0  0  0
    0.9243   -9.3052   21.1704 H   0  0  0  0  0  0  0  0  0  0  0  0
   -2.2653  -12.3476   20.7434 H   0  0  0  0  0  0  0  0  0  0  0  0
  1  2  2  0
  2  3  1  0
  3  4  1  0
  4  5  1  0
  5  6  1  0
  6  7  1  0
  7  8  1  0
  8  9  1  0
  9 10  2  0
 10 11  1  0
 11 12  2  0
 12 13  1  0
 13 14  2  0
  8 15  1  0
 15 16  1  0
  5 17  1  0
 17 18  1  0
 18 19  1  0
 19 20  1  0
 20 21  2  0
 21 22  1  0
 22 23  1  0
 18  2  1  0
 23 19  2  0
 16  5  1  0
 14  9  1  0
  3 24  1  0
  3 25  1  0
  6 26  1  0
  6 27  1  0
  7 28  1  0
  7 29  1  0
 11 30  1  0
 12 31  1  0
 13 32  1  0
 15 33  1  0
 15 34  1  0
 16 35  1  0
 16 36  1  0
 17 37  1  0
 17 38  1  0
 20 39  1  0
 21 40  1  0
 23 41  1  0
M  END
>  <Energy>  (683) 
2236.3892678623301

>  <compound_id>  (683) 
17448

>  <target_id>  (683) 
1

>  <reference_id>  (683) 
66

>  <inspiration_ids>  (683) 
[66, 54]

>  <energy_score>  (683) 
2177.201829981535

>  <distance_score>  (683) 
12.612676349285277

>  <path>  (683) 
/opt/xchem-fragalysis-2/maxwin/BulkDock/SCRATCH/511014/C17448-P66/C17448-P66.minimised.mol

>  <scratch_subdir>  (683) 
/opt/xchem-fragalysis-2/maxwin/BulkDock/SCRATCH/511014/C17448-P66

>  <fragmenstein_runtime>  (683) 
27.46274495124817

>  <fragmenstein_outcome>  (683) 
too moved

>  <fragmenstein_mode>  (683) 
expansion

>  <fragmenstein_error>  (683) 


$$$$
C17448-P54
     RDKit          3D

 41 44  0  0  0  0  0  0  0  0999 V2000
    6.1507  -20.3517   20.2740 O   0  0  0  0  0  0  0  0  0  0  0  0
    5.0150  -20.2317   20.7383 C   0  0  0  0  0  0  0  0  0  0  0  0
    4.1884  -21.5126   20.9993 C   0  0  0  0  0  0  0  0  0  0  0  0
    2.7714  -21.4853   21.0060 O   0  0  0  0  0  0  0  0  0  0  0  0
    2.2309  -20.5263   21.9274 C   0  0  0  0  0  0  0  0  0  0  0  0
    2.2507  -21.1062   23.3827 C   0  0  0  0  0  0  0  0  0  0  0  0
    1.1427  -22.1654   23.7569 C   0  0  0  0  0  0  0  0  0  0  0  0
   -0.1713  -21.8277   23.2196 N   0  0  0  0  0  0  0  0  0  0  0  0
   -1.3647  -21.9136   23.9159 C   0  0  0  0  0  0  0  0  0  0  0  0
   -2.5210  -21.8060   23.2350 N   0  0  0  0  0  0  0  0  0  0  0  0
   -3.6599  -21.5886   23.9148 C   0  0  0  0  0  0  0  0  0  0  0  0
   -3.6967  -21.4558   25.2704 C   0  0  0  0  0  0  0  0  0  0  0  0
   -2.5015  -21.6721   25.9047 C   0  0  0  0  0  0  0  0  0  0  0  0
   -1.3384  -21.9131   25.2620 N   0  0  0  0  0  0  0  0  0  0  0  0
   -0.1879  -21.5238   21.8004 C   0  0  0  0  0  0  0  0  0  0  0  0
    0.7327  -20.3232   21.5300 C   0  0  0  0  0  0  0  0  0  0  0  0
    3.0141  -19.1166   21.6702 C   0  0  0  0  0  0  0  0  0  0  0  0
    4.4161  -19.0258   21.1305 N   0  0  0  0  0  0  0  0  0  0  0  0
    5.0560  -17.7364   20.8054 C   0  0  0  0  0  0  0  0  0  0  0  0
    4.5939  -16.4316   21.2182 C   0  0  0  0  0  0  0  0  0  0  0  0
    5.3337  -15.3644   20.7381 C   0  0  0  0  0  0  0  0  0  0  0  0
    6.6562  -15.8909   19.8083 S   0  0  0  0  0  0  0  0  0  0  0  0
    6.2078  -17.5387   20.0463 C   0  0  0  0  0  0  0  0  0  0  0  0
    4.5543  -21.9506   21.9342 H   0  0  0  0  0  0  0  0  0  0  0  0
    4.4634  -22.2154   20.2038 H   0  0  0  0  0  0  0  0  0  0  0  0
    2.1966  -20.2765   24.0827 H   0  0  0  0  0  0  0  0  0  0  0  0
    3.2182  -21.5766   23.5892 H   0  0  0  0  0  0  0  0  0  0  0  0
    1.1304  -22.2749   24.8476 H   0  0  0  0  0  0  0  0  0  0  0  0
    1.4449  -23.1378   23.3484 H   0  0  0  0  0  0  0  0  0  0  0  0
   -4.5507  -21.4984   23.3034 H   0  0  0  0  0  0  0  0  0  0  0  0
   -4.6056  -21.2313   25.8011 H   0  0  0  0  0  0  0  0  0  0  0  0
   -2.4271  -21.6387   26.9872 H   0  0  0  0  0  0  0  0  0  0  0  0
    0.1540  -22.3976   21.2321 H   0  0  0  0  0  0  0  0  0  0  0  0
   -1.1802  -21.2708   21.4112 H   0  0  0  0  0  0  0  0  0  0  0  0
    0.3365  -19.4425   22.0443 H   0  0  0  0  0  0  0  0  0  0  0  0
    0.6793  -20.1122   20.4537 H   0  0  0  0  0  0  0  0  0  0  0  0
    2.4637  -18.6591   20.8449 H   0  0  0  0  0  0  0  0  0  0  0  0
    2.9539  -18.5013   22.5714 H   0  0  0  0  0  0  0  0  0  0  0  0
    3.7459  -16.2841   21.8702 H   0  0  0  0  0  0  0  0  0  0  0  0
    5.1675  -14.3113   20.9188 H   0  0  0  0  0  0  0  0  0  0  0  0
    6.8323  -18.2830   19.5747 H   0  0  0  0  0  0  0  0  0  0  0  0
  1  2  2  0
  2  3  1  0
  3  4  1  0
  4  5  1  0
  5  6  1  0
  6  7  1  0
  7  8  1  0
  8  9  1  0
  9 10  2  0
 10 11  1  0
 11 12  2  0
 12 13  1  0
 13 14  2  0
  8 15  1  0
 15 16  1  0
  5 17  1  0
 17 18  1  0
 18 19  1  0
 19 20  1  0
 20 21  2  0
 21 22  1  0
 22 23  1  0
 18  2  1  0
 23 19  2  0
 16  5  1  0
 14  9  1  0
  3 24  1  0
  3 25  1  0
  6 26  1  0
  6 27  1  0
  7 28  1  0
  7 29  1  0
 11 30  1  0
 12 31  1  0
 13 32  1  0
 15 33  1  0
 15 34  1  0
 16 35  1  0
 16 36  1  0
 17 37  1  0
 17 38  1  0
 20 39  1  0
 21 40  1  0
 23 41  1  0
M  END
>  <Energy>  (684) 
14.499042309667342

>  <compound_id>  (684) 
17448

>  <target_id>  (684) 
1

>  <reference_id>  (684) 
54

>  <inspiration_ids>  (684) 
[66, 54]

>  <energy_score>  (684) 
-44.688395571155326

>  <distance_score>  (684) 
14.6672313819151

>  <path>  (684) 
/opt/xchem-fragalysis-2/maxwin/BulkDock/SCRATCH/511014/C17448-P54/C17448-P54.minimised.mol

>  <scratch_subdir>  (684) 
/opt/xchem-fragalysis-2/maxwin/BulkDock/SCRATCH/511014/C17448-P54

>  <fragmenstein_runtime>  (684) 
37.88497257232666

>  <fragmenstein_outcome>  (684) 
too moved

>  <fragmenstein_mode>  (684) 
expansion

>  <fragmenstein_error>  (684) 


$$$$
C17456-P66
     RDKit          3D

 37 39  0  0  0  0  0  0  0  0999 V2000
   -3.2644  -16.0351   25.7796 C   0  0  0  0  0  0  0  0  0  0  0  0
   -2.3916  -14.9072   26.4456 C   0  0  0  0  0  0  0  0  0  0  0  0
   -1.2313  -13.7051   25.3553 C   0  0  0  0  0  0  0  0  0  0  0  0
    0.8288  -13.4507   25.6120 N   0  0  0  0  0  0  0  0  0  0  0  0
    2.1593  -12.6884   24.4579 C   0  0  0  0  0  0  0  0  0  0  0  0
    1.7908  -12.1940   23.4572 O   0  0  0  0  0  0  0  0  0  0  0  0
    4.0314  -12.5977   24.5164 C   0  0  0  0  0  0  0  0  0  0  0  0
    5.5649  -11.5452   24.0497 C   0  0  0  0  0  0  0  0  0  0  0  0
    6.9637  -11.5816   24.2561 C   0  0  0  0  0  0  0  0  0  0  0  0
    6.9391  -11.6141   25.5854 C   0  0  0  0  0  0  0  0  0  0  0  0
    7.9237  -10.7488   26.2141 C   0  0  0  0  0  0  0  0  0  0  0  0
    7.8121   -9.3565   26.2200 C   0  0  0  0  0  0  0  0  0  0  0  0
    9.0722   -8.6845   26.2444 C   0  0  0  0  0  0  0  0  0  0  0  0
   10.1154   -9.5770   26.3147 C   0  0  0  0  0  0  0  0  0  0  0  0
    9.5743  -11.2058   26.3616 S   0  0  0  0  0  0  0  0  0  0  0  0
    5.7509  -12.7878   26.0567 S   0  0  0  0  0  0  0  0  0  0  0  0
   -2.9044  -12.7995   25.4731 C   0  0  0  0  0  0  0  0  0  0  0  0
   -4.0241  -13.5743   25.1728 N   0  0  0  0  0  0  0  0  0  0  0  0
   -5.2815  -13.1404   25.3716 C   0  0  0  0  0  0  0  0  0  0  0  0
   -5.5349  -11.8889   25.8218 C   0  0  0  0  0  0  0  0  0  0  0  0
   -4.4115  -11.1147   25.9933 C   0  0  0  0  0  0  0  0  0  0  0  0
   -3.1202  -11.5157   25.7969 N   0  0  0  0  0  0  0  0  0  0  0  0
   -4.3248  -15.9061   26.0200 H   0  0  0  0  0  0  0  0  0  0  0  0
   -2.9947  -17.0241   26.1683 H   0  0  0  0  0  0  0  0  0  0  0  0
   -3.1401  -16.0407   24.6926 H   0  0  0  0  0  0  0  0  0  0  0  0
   -3.1202  -14.3209   27.0383 H   0  0  0  0  0  0  0  0  0  0  0  0
   -1.8871  -15.3176   27.3418 H   0  0  0  0  0  0  0  0  0  0  0  0
   -1.1441  -14.3730   24.4655 H   0  0  0  0  0  0  0  0  0  0  0  0
    1.2722  -13.7546   26.4512 H   0  0  0  0  0  0  0  0  0  0  0  0
    5.3630  -10.8421   23.1902 H   0  0  0  0  0  0  0  0  0  0  0  0
    7.6841  -11.0290   23.6633 H   0  0  0  0  0  0  0  0  0  0  0  0
    6.8713   -8.8413   26.0609 H   0  0  0  0  0  0  0  0  0  0  0  0
    9.2006   -7.6103   26.1937 H   0  0  0  0  0  0  0  0  0  0  0  0
   11.1745   -9.3609   26.3499 H   0  0  0  0  0  0  0  0  0  0  0  0
   -6.0694  -13.8529   25.1552 H   0  0  0  0  0  0  0  0  0  0  0  0
   -6.5320  -11.5158   25.9992 H   0  0  0  0  0  0  0  0  0  0  0  0
   -4.5071  -10.0800   26.3179 H   0  0  0  0  0  0  0  0  0  0  0  0
  1  2  1  0
  2  3  1  0
  3  4  1  0
  4  5  1  0
  5  6  2  0
  5  7  1  0
  7  8  2  0
  8  9  1  0
  9 10  2  0
 10 11  1  0
 11 12  2  0
 12 13  1  0
 13 14  2  0
 14 15  1  0
 10 16  1  0
  3 17  1  0
 17 18  2  0
 18 19  1  0
 19 20  2  0
 20 21  1  0
 21 22  2  0
 16  7  1  0
 22 17  1  0
 15 11  1  0
  1 23  1  0
  1 24  1  0
  1 25  1  0
  2 26  1  0
  2 27  1  0
  3 28  1  0
  4 29  1  0
  8 30  1  0
  9 31  1  0
 12 32  1  0
 13 33  1  0
 14 34  1  0
 19 35  1  0
 20 36  1  0
 21 37  1  0
M  END
>  <Energy>  (685) 
718.48179699300363

>  <compound_id>  (685) 
17456

>  <target_id>  (685) 
1

>  <reference_id>  (685) 
66

>  <inspiration_ids>  (685) 
[66, 54]

>  <energy_score>  (685) 
664.9496403929321

>  <distance_score>  (685) 
14.633516421729627

>  <path>  (685) 
/opt/xchem-fragalysis-2/maxwin/BulkDock/SCRATCH/511014/C17456-P66/C17456-P66.minimised.mol

>  <scratch_subdir>  (685) 
/opt/xchem-fragalysis-2/maxwin/BulkDock/SCRATCH/511014/C17456-P66

>  <fragmenstein_runtime>  (685) 
21.301250219345093

>  <fragmenstein_outcome>  (685) 
too moved

>  <fragmenstein_mode>  (685) 
expansion

>  <fragmenstein_error>  (685) 


$$$$
C17456-P54
     RDKit          3D

 37 39  0  0  0  0  0  0  0  0999 V2000
   -2.4087  -17.8988   29.5015 C   0  0  0  0  0  0  0  0  0  0  0  0
   -1.3078  -18.8199   29.0008 C   0  0  0  0  0  0  0  0  0  0  0  0
   -0.9805  -18.8139   27.4750 C   0  0  0  0  0  0  0  0  0  0  0  0
   -0.1198  -17.7009   26.9803 N   0  0  0  0  0  0  0  0  0  0  0  0
   -0.4229  -16.5729   26.1262 C   0  0  0  0  0  0  0  0  0  0  0  0
   -1.4614  -16.2040   25.6639 O   0  0  0  0  0  0  0  0  0  0  0  0
    0.8592  -15.8174   25.7570 C   0  0  0  0  0  0  0  0  0  0  0  0
    1.9945  -16.2899   25.0259 C   0  0  0  0  0  0  0  0  0  0  0  0
    2.9796  -15.1444   24.7668 C   0  0  0  0  0  0  0  0  0  0  0  0
    3.2425  -13.6692   25.4044 C   0  0  0  0  0  0  0  0  0  0  0  0
    3.6143  -12.0422   24.5489 C   0  0  0  0  0  0  0  0  0  0  0  0
    4.0223  -11.8646   23.1574 C   0  0  0  0  0  0  0  0  0  0  0  0
    5.2190  -10.6626   22.8615 C   0  0  0  0  0  0  0  0  0  0  0  0
    5.5975   -9.8463   23.8514 C   0  0  0  0  0  0  0  0  0  0  0  0
    4.5380  -10.1096   25.0984 S   0  0  0  0  0  0  0  0  0  0  0  0
    1.4014  -13.8956   26.4296 S   0  0  0  0  0  0  0  0  0  0  0  0
   -2.1231  -19.3640   26.6035 C   0  0  0  0  0  0  0  0  0  0  0  0
   -1.8216  -19.7091   25.3351 N   0  0  0  0  0  0  0  0  0  0  0  0
   -2.7139  -20.4717   24.6725 C   0  0  0  0  0  0  0  0  0  0  0  0
   -3.8781  -20.9290   25.2240 C   0  0  0  0  0  0  0  0  0  0  0  0
   -4.1179  -20.5013   26.5027 C   0  0  0  0  0  0  0  0  0  0  0  0
   -3.2644  -19.7540   27.2164 N   0  0  0  0  0  0  0  0  0  0  0  0
   -3.3254  -17.9561   28.9144 H   0  0  0  0  0  0  0  0  0  0  0  0
   -2.0622  -16.8669   29.4848 H   0  0  0  0  0  0  0  0  0  0  0  0
   -2.6470  -18.1350   30.5434 H   0  0  0  0  0  0  0  0  0  0  0  0
   -1.5776  -19.8442   29.2927 H   0  0  0  0  0  0  0  0  0  0  0  0
   -0.3891  -18.5817   29.5527 H   0  0  0  0  0  0  0  0  0  0  0  0
   -0.2531  -19.6392   27.4048 H   0  0  0  0  0  0  0  0  0  0  0  0
    0.8573  -17.6607   27.2465 H   0  0  0  0  0  0  0  0  0  0  0  0
    2.0104  -17.2400   24.4978 H   0  0  0  0  0  0  0  0  0  0  0  0
    3.3309  -15.4582   23.7894 H   0  0  0  0  0  0  0  0  0  0  0  0
    3.8158  -12.6432   22.4365 H   0  0  0  0  0  0  0  0  0  0  0  0
    5.6591  -10.3911   21.9167 H   0  0  0  0  0  0  0  0  0  0  0  0
    6.3067   -9.0303   23.8411 H   0  0  0  0  0  0  0  0  0  0  0  0
   -2.4368  -20.7252   23.6535 H   0  0  0  0  0  0  0  0  0  0  0  0
   -4.5587  -21.5672   24.6807 H   0  0  0  0  0  0  0  0  0  0  0  0
   -5.0333  -20.7568   27.0204 H   0  0  0  0  0  0  0  0  0  0  0  0
  1  2  1  0
  2  3  1  0
  3  4  1  0
  4  5  1  0
  5  6  2  0
  5  7  1  0
  7  8  2  0
  8  9  1  0
  9 10  2  0
 10 11  1  0
 11 12  2  0
 12 13  1  0
 13 14  2  0
 14 15  1  0
 10 16  1  0
  3 17  1  0
 17 18  2  0
 18 19  1  0
 19 20  2  0
 20 21  1  0
 21 22  2  0
 16  7  1  0
 22 17  1  0
 15 11  1  0
  1 23  1  0
  1 24  1  0
  1 25  1  0
  2 26  1  0
  2 27  1  0
  3 28  1  0
  4 29  1  0
  8 30  1  0
  9 31  1  0
 12 32  1  0
 13 33  1  0
 14 34  1  0
 19 35  1  0
 20 36  1  0
 21 37  1  0
M  END
>  <Energy>  (686) 
313.20735262479741

>  <compound_id>  (686) 
17456

>  <target_id>  (686) 
1

>  <reference_id>  (686) 
54

>  <inspiration_ids>  (686) 
[66, 54]

>  <energy_score>  (686) 
259.6751960247316

>  <distance_score>  (686) 
13.47097981471049

>  <path>  (686) 
/opt/xchem-fragalysis-2/maxwin/BulkDock/SCRATCH/511014/C17456-P54/C17456-P54.minimised.mol

>  <scratch_subdir>  (686) 
/opt/xchem-fragalysis-2/maxwin/BulkDock/SCRATCH/511014/C17456-P54

>  <fragmenstein_runtime>  (686) 
23.484740018844604

>  <fragmenstein_outcome>  (686) 
too moved

>  <fragmenstein_mode>  (686) 
expansion

>  <fragmenstein_error>  (686) 


$$$$
C17457-P66
     RDKit          3D

 36 38  0  0  0  0  0  0  0  0999 V2000
   -1.7817  -22.3914   25.9535 C   0  0  0  0  0  0  0  0  0  0  0  0
   -1.2386  -21.8620   24.6117 C   0  0  0  0  0  0  0  0  0  0  0  0
   -0.9017  -20.3319   24.5685 C   0  0  0  0  0  0  0  0  0  0  0  0
   -0.3676  -19.8254   23.1171 N   0  0  0  0  0  0  0  0  0  0  0  0
    0.5309  -19.4918   22.5799 C   0  0  0  0  0  0  0  0  0  0  0  0
    1.6879  -19.7126   23.6750 O   0  0  0  0  0  0  0  0  0  0  0  0
    0.6335  -19.0153   21.1953 C   0  0  0  0  0  0  0  0  0  0  0  0
   -0.3760  -19.4969   20.3372 N   0  0  0  0  0  0  0  0  0  0  0  0
   -0.1358  -18.9336   19.1909 C   0  0  0  0  0  0  0  0  0  0  0  0
    0.9327  -18.1217   19.1740 O   0  0  0  0  0  0  0  0  0  0  0  0
    1.4823  -18.1280   20.4625 C   0  0  0  0  0  0  0  0  0  0  0  0
    2.6625  -17.2455   20.6140 C   0  0  0  0  0  0  0  0  0  0  0  0
    3.0384  -16.2596   19.6877 C   0  0  0  0  0  0  0  0  0  0  0  0
    4.2631  -15.5848   19.9851 C   0  0  0  0  0  0  0  0  0  0  0  0
    4.8346  -16.1104   21.1160 C   0  0  0  0  0  0  0  0  0  0  0  0
    3.8450  -17.3166   21.8448 S   0  0  0  0  0  0  0  0  0  0  0  0
   -2.1465  -19.5794   25.0915 C   0  0  0  0  0  0  0  0  0  0  0  0
   -2.2528  -19.3398   26.4146 N   0  0  0  0  0  0  0  0  0  0  0  0
   -3.4177  -18.8242   26.8454 C   0  0  0  0  0  0  0  0  0  0  0  0
   -4.4694  -18.5496   26.0130 C   0  0  0  0  0  0  0  0  0  0  0  0
   -4.2594  -18.8194   24.6830 C   0  0  0  0  0  0  0  0  0  0  0  0
   -3.1266  -19.3580   24.1981 N   0  0  0  0  0  0  0  0  0  0  0  0
   -1.8234  -23.4853   25.9261 H   0  0  0  0  0  0  0  0  0  0  0  0
   -1.1297  -22.0969   26.7813 H   0  0  0  0  0  0  0  0  0  0  0  0
   -2.7963  -22.0331   26.1495 H   0  0  0  0  0  0  0  0  0  0  0  0
   -0.3250  -22.4138   24.3584 H   0  0  0  0  0  0  0  0  0  0  0  0
   -1.9667  -22.1020   23.8260 H   0  0  0  0  0  0  0  0  0  0  0  0
   -0.0766  -20.1313   25.2626 H   0  0  0  0  0  0  0  0  0  0  0  0
   -1.3300  -20.0674   23.2002 H   0  0  0  0  0  0  0  0  0  0  0  0
   -0.6848  -19.0398   18.2664 H   0  0  0  0  0  0  0  0  0  0  0  0
    2.4479  -16.0444   18.8055 H   0  0  0  0  0  0  0  0  0  0  0  0
    4.7035  -14.7981   19.3866 H   0  0  0  0  0  0  0  0  0  0  0  0
    5.7761  -15.8487   21.5750 H   0  0  0  0  0  0  0  0  0  0  0  0
   -3.4683  -18.6110   27.9086 H   0  0  0  0  0  0  0  0  0  0  0  0
   -5.3843  -18.1196   26.3887 H   0  0  0  0  0  0  0  0  0  0  0  0
   -5.0120  -18.5982   23.9329 H   0  0  0  0  0  0  0  0  0  0  0  0
  1  2  1  0
  2  3  1  0
  3  4  1  0
  4  5  1  0
  5  6  2  0
  5  7  1  0
  7  8  1  0
  8  9  2  0
  9 10  1  0
 10 11  1  0
 11 12  1  0
 12 13  2  0
 13 14  1  0
 14 15  2  0
 15 16  1  0
  3 17  1  0
 17 18  2  0
 18 19  1  0
 19 20  2  0
 20 21  1  0
 21 22  2  0
 11  7  2  0
 16 12  1  0
 22 17  1  0
  1 23  1  0
  1 24  1  0
  1 25  1  0
  2 26  1  0
  2 27  1  0
  3 28  1  0
  4 29  1  0
  9 30  1  0
 13 31  1  0
 14 32  1  0
 15 33  1  0
 19 34  1  0
 20 35  1  0
 21 36  1  0
M  END
>  <Energy>  (687) 
251.51641341323077

>  <compound_id>  (687) 
17457

>  <target_id>  (687) 
1

>  <reference_id>  (687) 
66

>  <inspiration_ids>  (687) 
[66, 54]

>  <energy_score>  (687) 
151.58081787176502

>  <distance_score>  (687) 
13.936416893825932

>  <path>  (687) 
/opt/xchem-fragalysis-2/maxwin/BulkDock/SCRATCH/511014/C17457-P66/C17457-P66.minimised.mol

>  <scratch_subdir>  (687) 
/opt/xchem-fragalysis-2/maxwin/BulkDock/SCRATCH/511014/C17457-P66

>  <fragmenstein_runtime>  (687) 
37.808557748794556

>  <fragmenstein_outcome>  (687) 
too moved

>  <fragmenstein_mode>  (687) 
expansion

>  <fragmenstein_error>  (687) 


$$$$
C17457-P54
     RDKit          3D

 36 38  0  0  0  0  0  0  0  0999 V2000
    1.7313  -20.3050   25.0840 C   0  0  0  0  0  0  0  0  0  0  0  0
    2.6203  -19.2288   24.3935 C   0  0  0  0  0  0  0  0  0  0  0  0
    1.9428  -17.8933   23.8261 C   0  0  0  0  0  0  0  0  0  0  0  0
    2.8856  -16.4768   24.0166 N   0  0  0  0  0  0  0  0  0  0  0  0
    2.6115  -15.1476   24.8445 C   0  0  0  0  0  0  0  0  0  0  0  0
    1.6988  -14.8852   25.5923 O   0  0  0  0  0  0  0  0  0  0  0  0
    3.6365  -13.7189   24.6397 C   0  0  0  0  0  0  0  0  0  0  0  0
    3.3608  -12.6979   25.3974 N   0  0  0  0  0  0  0  0  0  0  0  0
    3.1495  -11.8195   24.4774 C   0  0  0  0  0  0  0  0  0  0  0  0
    3.7608  -11.7829   23.2870 O   0  0  0  0  0  0  0  0  0  0  0  0
    4.1208  -13.0260   23.0950 C   0  0  0  0  0  0  0  0  0  0  0  0
    5.3045  -13.4482   22.1010 C   0  0  0  0  0  0  0  0  0  0  0  0
    5.3110  -14.4095   21.0978 C   0  0  0  0  0  0  0  0  0  0  0  0
    6.5634  -14.4854   20.3882 C   0  0  0  0  0  0  0  0  0  0  0  0
    7.5123  -13.6096   20.8643 C   0  0  0  0  0  0  0  0  0  0  0  0
    6.9261  -12.6902   22.1736 S   0  0  0  0  0  0  0  0  0  0  0  0
    0.3411  -18.1434   23.7250 C   0  0  0  0  0  0  0  0  0  0  0  0
   -0.5420  -17.7139   24.6550 N   0  0  0  0  0  0  0  0  0  0  0  0
   -1.7970  -18.2390   24.6916 C   0  0  0  0  0  0  0  0  0  0  0  0
   -2.2440  -19.2001   23.8300 C   0  0  0  0  0  0  0  0  0  0  0  0
   -1.3114  -19.5905   22.9059 C   0  0  0  0  0  0  0  0  0  0  0  0
   -0.0393  -19.1073   22.8440 N   0  0  0  0  0  0  0  0  0  0  0  0
    1.0408  -19.9064   25.8288 H   0  0  0  0  0  0  0  0  0  0  0  0
    1.1575  -20.8671   24.3418 H   0  0  0  0  0  0  0  0  0  0  0  0
    2.3814  -21.0281   25.5888 H   0  0  0  0  0  0  0  0  0  0  0  0
    3.4562  -18.9583   25.0526 H   0  0  0  0  0  0  0  0  0  0  0  0
    3.1116  -19.7299   23.5467 H   0  0  0  0  0  0  0  0  0  0  0  0
    2.1848  -18.0071   22.7585 H   0  0  0  0  0  0  0  0  0  0  0  0
    3.6882  -16.3416   23.4257 H   0  0  0  0  0  0  0  0  0  0  0  0
    2.1823  -11.3710   24.5090 H   0  0  0  0  0  0  0  0  0  0  0  0
    4.4433  -15.0097   20.8513 H   0  0  0  0  0  0  0  0  0  0  0  0
    6.7452  -15.1595   19.5594 H   0  0  0  0  0  0  0  0  0  0  0  0
    8.5248  -13.4727   20.5104 H   0  0  0  0  0  0  0  0  0  0  0  0
   -2.4391  -17.8322   25.4672 H   0  0  0  0  0  0  0  0  0  0  0  0
   -3.2440  -19.6038   23.8615 H   0  0  0  0  0  0  0  0  0  0  0  0
   -1.5476  -20.3382   22.1538 H   0  0  0  0  0  0  0  0  0  0  0  0
  1  2  1  0
  2  3  1  0
  3  4  1  0
  4  5  1  0
  5  6  2  0
  5  7  1  0
  7  8  1  0
  8  9  2  0
  9 10  1  0
 10 11  1  0
 11 12  1  0
 12 13  2  0
 13 14  1  0
 14 15  2  0
 15 16  1  0
  3 17  1  0
 17 18  2  0
 18 19  1  0
 19 20  2  0
 20 21  1  0
 21 22  2  0
 11  7  2  0
 16 12  1  0
 22 17  1  0
  1 23  1  0
  1 24  1  0
  1 25  1  0
  2 26  1  0
  2 27  1  0
  3 28  1  0
  4 29  1  0
  9 30  1  0
 13 31  1  0
 14 32  1  0
 15 33  1  0
 19 34  1  0
 20 35  1  0
 21 36  1  0
M  END
>  <Energy>  (688) 
248.32042477306078

>  <compound_id>  (688) 
17457

>  <target_id>  (688) 
1

>  <reference_id>  (688) 
54

>  <inspiration_ids>  (688) 
[66, 54]

>  <energy_score>  (688) 
148.38482923159762

>  <distance_score>  (688) 
14.23881433952675

>  <path>  (688) 
/opt/xchem-fragalysis-2/maxwin/BulkDock/SCRATCH/511014/C17457-P54/C17457-P54.minimised.mol

>  <scratch_subdir>  (688) 
/opt/xchem-fragalysis-2/maxwin/BulkDock/SCRATCH/511014/C17457-P54

>  <fragmenstein_runtime>  (688) 
22.89357566833496

>  <fragmenstein_outcome>  (688) 
too moved

>  <fragmenstein_mode>  (688) 
expansion

>  <fragmenstein_error>  (688) 


$$$$
C17458-P66
     RDKit          3D

 40 42  0  0  0  0  0  0  0  0999 V2000
  -12.3720  -21.3523   23.9759 C   0  0  0  0  0  0  0  0  0  0  0  0
  -12.8324  -22.6466   23.4300 C   0  0  0  0  0  0  0  0  0  0  0  0
  -13.8223  -23.4777   24.2701 C   0  0  0  0  0  0  0  0  0  0  0  0
  -13.1621  -23.7497   25.5267 N   0  0  0  0  0  0  0  0  0  0  0  0
  -12.1784  -24.8657   25.9179 C   0  0  0  0  0  0  0  0  0  0  0  0
  -11.8029  -25.7882   25.3128 O   0  0  0  0  0  0  0  0  0  0  0  0
  -11.7012  -24.6493   27.2965 C   0  0  0  0  0  0  0  0  0  0  0  0
  -11.3902  -25.7541   27.9891 C   0  0  0  0  0  0  0  0  0  0  0  0
  -11.0759  -25.6754   29.3832 C   0  0  0  0  0  0  0  0  0  0  0  0
  -11.2449  -24.5179   30.0403 C   0  0  0  0  0  0  0  0  0  0  0  0
  -11.0121  -24.3952   31.4242 C   0  0  0  0  0  0  0  0  0  0  0  0
  -10.8757  -23.2543   32.1902 C   0  0  0  0  0  0  0  0  0  0  0  0
   -9.8586  -23.5469   33.1186 C   0  0  0  0  0  0  0  0  0  0  0  0
   -9.8319  -24.8610   33.4828 C   0  0  0  0  0  0  0  0  0  0  0  0
  -10.7938  -25.7592   32.4370 S   0  0  0  0  0  0  0  0  0  0  0  0
  -11.5129  -23.3819   29.3365 N   0  0  0  0  0  0  0  0  0  0  0  0
  -11.6146  -23.3455   27.9841 C   0  0  0  0  0  0  0  0  0  0  0  0
  -11.6764  -22.2741   27.4078 O   0  0  0  0  0  0  0  0  0  0  0  0
  -15.3000  -23.1298   24.3102 C   0  0  0  0  0  0  0  0  0  0  0  0
  -15.7744  -21.9711   23.8157 N   0  0  0  0  0  0  0  0  0  0  0  0
  -17.1169  -21.7762   23.9042 C   0  0  0  0  0  0  0  0  0  0  0  0
  -18.0118  -22.7225   24.3354 C   0  0  0  0  0  0  0  0  0  0  0  0
  -17.4564  -23.9141   24.7076 C   0  0  0  0  0  0  0  0  0  0  0  0
  -16.1279  -24.1418   24.6856 N   0  0  0  0  0  0  0  0  0  0  0  0
  -11.9300  -21.4840   24.9381 H   0  0  0  0  0  0  0  0  0  0  0  0
  -11.6429  -20.8836   23.3165 H   0  0  0  0  0  0  0  0  0  0  0  0
  -13.2006  -20.7252   24.2212 H   0  0  0  0  0  0  0  0  0  0  0  0
  -13.1668  -22.5552   22.4096 H   0  0  0  0  0  0  0  0  0  0  0  0
  -11.8556  -23.1249   23.3895 H   0  0  0  0  0  0  0  0  0  0  0  0
  -13.9322  -24.4573   23.8057 H   0  0  0  0  0  0  0  0  0  0  0  0
  -13.1995  -23.0520   26.2712 H   0  0  0  0  0  0  0  0  0  0  0  0
  -11.4478  -26.7401   27.5396 H   0  0  0  0  0  0  0  0  0  0  0  0
  -10.7771  -26.5996   29.8652 H   0  0  0  0  0  0  0  0  0  0  0  0
  -11.1012  -22.2513   31.8546 H   0  0  0  0  0  0  0  0  0  0  0  0
   -9.1613  -22.8404   33.5247 H   0  0  0  0  0  0  0  0  0  0  0  0
   -9.2374  -25.3277   34.2478 H   0  0  0  0  0  0  0  0  0  0  0  0
  -11.5663  -22.4823   29.7876 H   0  0  0  0  0  0  0  0  0  0  0  0
  -17.4721  -20.7907   23.6168 H   0  0  0  0  0  0  0  0  0  0  0  0
  -19.0742  -22.5315   24.3839 H   0  0  0  0  0  0  0  0  0  0  0  0
  -18.0659  -24.7412   25.0582 H   0  0  0  0  0  0  0  0  0  0  0  0
  1  2  1  0
  2  3  1  0
  3  4  1  0
  4  5  1  0
  5  6  2  0
  5  7  1  0
  7  8  2  0
  8  9  1  0
  9 10  2  0
 10 11  1  0
 11 12  2  0
 12 13  1  0
 13 14  2  0
 14 15  1  0
 10 16  1  0
 16 17  1  0
 17 18  2  0
  3 19  1  0
 19 20  2  0
 20 21  1  0
 21 22  2  0
 22 23  1  0
 23 24  2  0
 17  7  1  0
 24 19  1  0
 15 11  1  0
  1 25  1  0
  1 26  1  0
  1 27  1  0
  2 28  1  0
  2 29  1  0
  3 30  1  0
  4 31  1  0
  8 32  1  0
  9 33  1  0
 12 34  1  0
 13 35  1  0
 14 36  1  0
 16 37  1  0
 21 38  1  0
 22 39  1  0
 23 40  1  0
M  END
>  <Energy>  (689) 
48.183630129136077

>  <compound_id>  (689) 
17458

>  <target_id>  (689) 
1

>  <reference_id>  (689) 
66

>  <inspiration_ids>  (689) 
[66, 54]

>  <energy_score>  (689) 
-14.234966960362613

>  <distance_score>  (689) 
1.5181081836340011

>  <path>  (689) 
/opt/xchem-fragalysis-2/maxwin/BulkDock/SCRATCH/511014/C17458-P66/C17458-P66.minimised.mol

>  <scratch_subdir>  (689) 
/opt/xchem-fragalysis-2/maxwin/BulkDock/SCRATCH/511014/C17458-P66

>  <fragmenstein_runtime>  (689) 
8.265383005142212

>  <fragmenstein_outcome>  (689) 
too moved

>  <fragmenstein_mode>  (689) 
expansion

>  <fragmenstein_error>  (689) 


$$$$
C17458-P54
     RDKit          3D

 40 42  0  0  0  0  0  0  0  0999 V2000
  -12.0715  -20.8274   24.1313 C   0  0  0  0  0  0  0  0  0  0  0  0
  -12.5981  -22.1730   23.7852 C   0  0  0  0  0  0  0  0  0  0  0  0
  -13.5234  -22.9015   24.7749 C   0  0  0  0  0  0  0  0  0  0  0  0
  -12.8297  -23.0497   26.0277 N   0  0  0  0  0  0  0  0  0  0  0  0
  -12.2737  -24.3062   26.7202 C   0  0  0  0  0  0  0  0  0  0  0  0
  -12.3558  -25.4316   26.4244 O   0  0  0  0  0  0  0  0  0  0  0  0
  -11.6075  -23.8980   28.0027 C   0  0  0  0  0  0  0  0  0  0  0  0
  -11.3426  -24.8635   28.9047 C   0  0  0  0  0  0  0  0  0  0  0  0
  -10.8322  -24.5458   30.2199 C   0  0  0  0  0  0  0  0  0  0  0  0
  -10.5991  -23.2677   30.5499 C   0  0  0  0  0  0  0  0  0  0  0  0
  -10.2548  -22.8465   31.8560 C   0  0  0  0  0  0  0  0  0  0  0  0
  -10.8164  -21.7895   32.5539 C   0  0  0  0  0  0  0  0  0  0  0  0
  -10.2870  -21.6439   33.8558 C   0  0  0  0  0  0  0  0  0  0  0  0
   -9.2734  -22.5392   34.0870 C   0  0  0  0  0  0  0  0  0  0  0  0
   -9.0371  -23.6117   32.7870 S   0  0  0  0  0  0  0  0  0  0  0  0
  -10.7951  -22.2824   29.6288 N   0  0  0  0  0  0  0  0  0  0  0  0
  -11.2700  -22.4950   28.3759 C   0  0  0  0  0  0  0  0  0  0  0  0
  -11.4484  -21.5422   27.6291 O   0  0  0  0  0  0  0  0  0  0  0  0
  -14.9929  -22.5493   24.9534 C   0  0  0  0  0  0  0  0  0  0  0  0
  -15.5551  -21.5081   24.3134 N   0  0  0  0  0  0  0  0  0  0  0  0
  -16.8830  -21.3215   24.5278 C   0  0  0  0  0  0  0  0  0  0  0  0
  -17.6847  -22.1728   25.2476 C   0  0  0  0  0  0  0  0  0  0  0  0
  -17.0443  -23.2529   25.7874 C   0  0  0  0  0  0  0  0  0  0  0  0
  -15.7233  -23.4673   25.6407 N   0  0  0  0  0  0  0  0  0  0  0  0
  -11.7154  -20.8985   25.1434 H   0  0  0  0  0  0  0  0  0  0  0  0
  -11.2701  -20.5258   23.4512 H   0  0  0  0  0  0  0  0  0  0  0  0
  -12.7874  -20.0380   24.1812 H   0  0  0  0  0  0  0  0  0  0  0  0
  -12.9703  -22.2099   22.7746 H   0  0  0  0  0  0  0  0  0  0  0  0
  -11.6482  -22.7018   23.7612 H   0  0  0  0  0  0  0  0  0  0  0  0
  -13.6144  -23.9232   24.4018 H   0  0  0  0  0  0  0  0  0  0  0  0
  -12.6402  -22.2303   26.6056 H   0  0  0  0  0  0  0  0  0  0  0  0
  -11.5728  -25.9063   28.7025 H   0  0  0  0  0  0  0  0  0  0  0  0
  -10.7269  -25.3563   30.9320 H   0  0  0  0  0  0  0  0  0  0  0  0
  -11.6229  -21.1758   32.1672 H   0  0  0  0  0  0  0  0  0  0  0  0
  -10.6324  -20.9094   34.5741 H   0  0  0  0  0  0  0  0  0  0  0  0
   -8.6674  -22.6146   34.9692 H   0  0  0  0  0  0  0  0  0  0  0  0
  -10.6106  -21.3159   29.8734 H   0  0  0  0  0  0  0  0  0  0  0  0
  -17.3090  -20.4163   24.1053 H   0  0  0  0  0  0  0  0  0  0  0  0
  -18.7379  -21.9836   25.3989 H   0  0  0  0  0  0  0  0  0  0  0  0
  -17.5735  -23.9851   26.3901 H   0  0  0  0  0  0  0  0  0  0  0  0
  1  2  1  0
  2  3  1  0
  3  4  1  0
  4  5  1  0
  5  6  2  0
  5  7  1  0
  7  8  2  0
  8  9  1  0
  9 10  2  0
 10 11  1  0
 11 12  2  0
 12 13  1  0
 13 14  2  0
 14 15  1  0
 10 16  1  0
 16 17  1  0
 17 18  2  0
  3 19  1  0
 19 20  2  0
 20 21  1  0
 21 22  2  0
 22 23  1  0
 23 24  2  0
 17  7  1  0
 24 19  1  0
 15 11  1  0
  1 25  1  0
  1 26  1  0
  1 27  1  0
  2 28  1  0
  2 29  1  0
  3 30  1  0
  4 31  1  0
  8 32  1  0
  9 33  1  0
 12 34  1  0
 13 35  1  0
 14 36  1  0
 16 37  1  0
 21 38  1  0
 22 39  1  0
 23 40  1  0
M  END
>  <Energy>  (690) 
29.583521010007132

>  <compound_id>  (690) 
17458

>  <target_id>  (690) 
1

>  <reference_id>  (690) 
54

>  <inspiration_ids>  (690) 
[66, 54]

>  <energy_score>  (690) 
-32.83507607948877

>  <distance_score>  (690) 
0.7111690154194112

>  <path>  (690) 
/opt/xchem-fragalysis-2/maxwin/BulkDock/SCRATCH/511014/C17458-P54/C17458-P54.minimised.mol

>  <scratch_subdir>  (690) 
/opt/xchem-fragalysis-2/maxwin/BulkDock/SCRATCH/511014/C17458-P54

>  <fragmenstein_runtime>  (690) 
10.769805669784546

>  <fragmenstein_outcome>  (690) 
acceptable

>  <fragmenstein_mode>  (690) 
expansion

>  <fragmenstein_error>  (690) 


$$$$
C17460-P66
     RDKit          3D

 47 49  0  0  0  0  0  0  0  0999 V2000
   -0.3239   -9.0699   21.1851 C   0  0  0  0  0  0  0  0  0  0  0  0
   -1.3863   -9.0857   20.1757 N   0  0  0  0  0  0  0  0  0  0  0  0
   -2.6928   -9.0663   20.8209 C   0  0  0  0  0  0  0  0  0  0  0  0
   -1.1915  -10.2128   19.2120 C   0  0  0  0  0  0  0  0  0  0  0  0
   -2.5535  -11.0729   18.7080 C   0  0  0  0  0  0  0  0  0  0  0  0
   -3.1434  -12.3794   19.3832 N   0  0  0  0  0  0  0  0  0  0  0  0
   -4.2873  -12.5616   20.3364 C   0  0  0  0  0  0  0  0  0  0  0  0
   -4.9857  -11.7454   20.8847 O   0  0  0  0  0  0  0  0  0  0  0  0
   -4.7477  -14.2407   20.5965 C   0  0  0  0  0  0  0  0  0  0  0  0
   -3.6439  -15.2132   21.0594 C   0  0  0  0  0  0  0  0  0  0  0  0
   -4.0075  -15.7068   22.4738 C   0  0  0  0  0  0  0  0  0  0  0  0
   -5.1532  -14.8088   22.9323 C   0  0  0  0  0  0  0  0  0  0  0  0
   -5.8335  -14.4235   21.6811 N   0  0  0  0  0  0  0  0  0  0  0  0
   -6.7895  -15.4696   21.5217 C   0  0  0  0  0  0  0  0  0  0  0  0
   -7.9168  -15.3789   22.2585 N   0  0  0  0  0  0  0  0  0  0  0  0
   -8.7461  -16.4425   22.2985 C   0  0  0  0  0  0  0  0  0  0  0  0
   -8.4900  -17.6341   21.6760 C   0  0  0  0  0  0  0  0  0  0  0  0
   -7.3233  -17.6521   20.9587 C   0  0  0  0  0  0  0  0  0  0  0  0
   -6.4753  -16.5974   20.8567 N   0  0  0  0  0  0  0  0  0  0  0  0
   -0.2455   -9.6165   18.0618 C   0  0  0  0  0  0  0  0  0  0  0  0
    0.2927   -8.3254   17.9625 C   0  0  0  0  0  0  0  0  0  0  0  0
    1.2835   -8.1695   16.9449 C   0  0  0  0  0  0  0  0  0  0  0  0
    1.4652   -9.3374   16.2474 C   0  0  0  0  0  0  0  0  0  0  0  0
    0.4251  -10.5855   16.8016 S   0  0  0  0  0  0  0  0  0  0  0  0
   -0.4237   -8.1965   21.8391 H   0  0  0  0  0  0  0  0  0  0  0  0
    0.6670   -8.9993   20.7281 H   0  0  0  0  0  0  0  0  0  0  0  0
   -0.3649   -9.9706   21.7999 H   0  0  0  0  0  0  0  0  0  0  0  0
   -3.4853   -8.8513   20.0980 H   0  0  0  0  0  0  0  0  0  0  0  0
   -2.7491   -8.2595   21.5613 H   0  0  0  0  0  0  0  0  0  0  0  0
   -2.9167  -10.0055   21.3310 H   0  0  0  0  0  0  0  0  0  0  0  0
   -0.6278  -10.9901   19.7169 H   0  0  0  0  0  0  0  0  0  0  0  0
   -2.3350  -11.4221   17.6926 H   0  0  0  0  0  0  0  0  0  0  0  0
   -3.3983  -10.3845   18.6131 H   0  0  0  0  0  0  0  0  0  0  0  0
   -2.7306  -13.2815   19.1829 H   0  0  0  0  0  0  0  0  0  0  0  0
   -5.1525  -14.5417   19.6212 H   0  0  0  0  0  0  0  0  0  0  0  0
   -2.6570  -14.7561   21.0203 H   0  0  0  0  0  0  0  0  0  0  0  0
   -3.5999  -16.0748   20.3821 H   0  0  0  0  0  0  0  0  0  0  0  0
   -3.1560  -15.6953   23.1580 H   0  0  0  0  0  0  0  0  0  0  0  0
   -4.3361  -16.7517   22.4216 H   0  0  0  0  0  0  0  0  0  0  0  0
   -4.7909  -13.9005   23.4191 H   0  0  0  0  0  0  0  0  0  0  0  0
   -5.7792  -15.3083   23.6844 H   0  0  0  0  0  0  0  0  0  0  0  0
   -9.6438  -16.2886   22.8857 H   0  0  0  0  0  0  0  0  0  0  0  0
   -9.1549  -18.4842   21.7298 H   0  0  0  0  0  0  0  0  0  0  0  0
   -7.0169  -18.5399   20.4123 H   0  0  0  0  0  0  0  0  0  0  0  0
    0.0155   -7.5294   18.6446 H   0  0  0  0  0  0  0  0  0  0  0  0
    1.8241   -7.2533   16.7459 H   0  0  0  0  0  0  0  0  0  0  0  0
    2.1404   -9.5236   15.4239 H   0  0  0  0  0  0  0  0  0  0  0  0
  1  2  1  0
  2  3  1  0
  2  4  1  0
  4  5  1  0
  5  6  1  0
  6  7  1  0
  7  8  2  0
  7  9  1  0
  9 10  1  0
 10 11  1  0
 11 12  1  0
 12 13  1  0
 13 14  1  0
 14 15  2  0
 15 16  1  0
 16 17  2  0
 17 18  1  0
 18 19  2  0
  4 20  1  0
 20 21  2  0
 21 22  1  0
 22 23  2  0
 23 24  1  0
 13  9  1  0
 19 14  1  0
 24 20  1  0
  1 25  1  0
  1 26  1  0
  1 27  1  0
  3 28  1  0
  3 29  1  0
  3 30  1  0
  4 31  1  0
  5 32  1  0
  5 33  1  0
  6 34  1  0
  9 35  1  0
 10 36  1  0
 10 37  1  0
 11 38  1  0
 11 39  1  0
 12 40  1  0
 12 41  1  0
 16 42  1  0
 17 43  1  0
 18 44  1  0
 21 45  1  0
 22 46  1  0
 23 47  1  0
M  END
>  <Energy>  (691) 
62.516250174132303

>  <compound_id>  (691) 
17460

>  <target_id>  (691) 
1

>  <reference_id>  (691) 
66

>  <inspiration_ids>  (691) 
[66, 54]

>  <energy_score>  (691) 
-23.659597737206468

>  <distance_score>  (691) 
14.252734906360294

>  <path>  (691) 
/opt/xchem-fragalysis-2/maxwin/BulkDock/SCRATCH/511014/C17460-P66/C17460-P66.minimised.mol

>  <scratch_subdir>  (691) 
/opt/xchem-fragalysis-2/maxwin/BulkDock/SCRATCH/511014/C17460-P66

>  <fragmenstein_runtime>  (691) 
67.58320903778076

>  <fragmenstein_outcome>  (691) 
too moved

>  <fragmenstein_mode>  (691) 
expansion

>  <fragmenstein_error>  (691) 


$$$$
C17460-P54
     RDKit          3D

 47 49  0  0  0  0  0  0  0  0999 V2000
   -2.4841  -17.7724   29.2873 C   0  0  0  0  0  0  0  0  0  0  0  0
   -2.4278  -18.2751   27.9173 N   0  0  0  0  0  0  0  0  0  0  0  0
   -1.6421  -19.5072   27.8746 C   0  0  0  0  0  0  0  0  0  0  0  0
   -3.8017  -18.3820   27.2744 C   0  0  0  0  0  0  0  0  0  0  0  0
   -4.5471  -19.8849   27.1796 C   0  0  0  0  0  0  0  0  0  0  0  0
   -6.1030  -20.3289   27.6002 N   0  0  0  0  0  0  0  0  0  0  0  0
   -7.0216  -21.0939   26.9556 C   0  0  0  0  0  0  0  0  0  0  0  0
   -6.9865  -21.5876   25.8722 O   0  0  0  0  0  0  0  0  0  0  0  0
   -8.6705  -21.6787   27.9107 C   0  0  0  0  0  0  0  0  0  0  0  0
   -9.9696  -20.9031   28.4233 C   0  0  0  0  0  0  0  0  0  0  0  0
  -10.5093  -21.6176   29.6780 C   0  0  0  0  0  0  0  0  0  0  0  0
   -9.5273  -22.7450   30.0033 C   0  0  0  0  0  0  0  0  0  0  0  0
   -8.7399  -23.0179   28.7713 N   0  0  0  0  0  0  0  0  0  0  0  0
   -9.6315  -23.9569   28.0937 C   0  0  0  0  0  0  0  0  0  0  0  0
  -10.8400  -23.5461   27.6524 N   0  0  0  0  0  0  0  0  0  0  0  0
  -11.6358  -24.4166   27.0095 C   0  0  0  0  0  0  0  0  0  0  0  0
  -11.2842  -25.7145   26.7779 C   0  0  0  0  0  0  0  0  0  0  0  0
  -10.0539  -26.0622   27.2640 C   0  0  0  0  0  0  0  0  0  0  0  0
   -9.2378  -25.2185   27.9349 N   0  0  0  0  0  0  0  0  0  0  0  0
   -3.6578  -17.6273   25.9480 C   0  0  0  0  0  0  0  0  0  0  0  0
   -4.1837  -16.3787   25.6221 C   0  0  0  0  0  0  0  0  0  0  0  0
   -3.1008  -15.5157   25.2806 C   0  0  0  0  0  0  0  0  0  0  0  0
   -1.9320  -16.2497   25.2742 C   0  0  0  0  0  0  0  0  0  0  0  0
   -2.2922  -17.8809   24.9174 S   0  0  0  0  0  0  0  0  0  0  0  0
   -3.1213  -16.8868   29.3730 H   0  0  0  0  0  0  0  0  0  0  0  0
   -1.4825  -17.4707   29.6145 H   0  0  0  0  0  0  0  0  0  0  0  0
   -2.8450  -18.5264   29.9891 H   0  0  0  0  0  0  0  0  0  0  0  0
   -0.6020  -19.2944   28.1421 H   0  0  0  0  0  0  0  0  0  0  0  0
   -1.6223  -19.9537   26.8762 H   0  0  0  0  0  0  0  0  0  0  0  0
   -2.0067  -20.2630   28.5790 H   0  0  0  0  0  0  0  0  0  0  0  0
   -4.4681  -17.7413   27.8566 H   0  0  0  0  0  0  0  0  0  0  0  0
   -3.9724  -20.5670   27.8098 H   0  0  0  0  0  0  0  0  0  0  0  0
   -4.4164  -20.2636   26.1591 H   0  0  0  0  0  0  0  0  0  0  0  0
   -6.4246  -20.1624   28.5086 H   0  0  0  0  0  0  0  0  0  0  0  0
   -9.0926  -22.1534   27.0196 H   0  0  0  0  0  0  0  0  0  0  0  0
   -9.8404  -19.8491   28.6196 H   0  0  0  0  0  0  0  0  0  0  0  0
  -10.7542  -20.9341   27.6549 H   0  0  0  0  0  0  0  0  0  0  0  0
  -10.6385  -20.9376   30.5251 H   0  0  0  0  0  0  0  0  0  0  0  0
  -11.5126  -22.0144   29.4829 H   0  0  0  0  0  0  0  0  0  0  0  0
  -10.0467  -23.6270   30.4061 H   0  0  0  0  0  0  0  0  0  0  0  0
   -8.8398  -22.4533   30.8045 H   0  0  0  0  0  0  0  0  0  0  0  0
  -12.5842  -24.0132   26.6686 H   0  0  0  0  0  0  0  0  0  0  0  0
  -11.9173  -26.4075   26.2435 H   0  0  0  0  0  0  0  0  0  0  0  0
   -9.6595  -27.0656   27.1256 H   0  0  0  0  0  0  0  0  0  0  0  0
   -5.1285  -16.0039   25.9969 H   0  0  0  0  0  0  0  0  0  0  0  0
   -3.1688  -14.4356   25.2969 H   0  0  0  0  0  0  0  0  0  0  0  0
   -0.9051  -15.9526   25.2978 H   0  0  0  0  0  0  0  0  0  0  0  0
  1  2  1  0
  2  3  1  0
  2  4  1  0
  4  5  1  0
  5  6  1  0
  6  7  1  0
  7  8  2  0
  7  9  1  0
  9 10  1  0
 10 11  1  0
 11 12  1  0
 12 13  1  0
 13 14  1  0
 14 15  2  0
 15 16  1  0
 16 17  2  0
 17 18  1  0
 18 19  2  0
  4 20  1  0
 20 21  2  0
 21 22  1  0
 22 23  2  0
 23 24  1  0
 13  9  1  0
 19 14  1  0
 24 20  1  0
  1 25  1  0
  1 26  1  0
  1 27  1  0
  3 28  1  0
  3 29  1  0
  3 30  1  0
  4 31  1  0
  5 32  1  0
  5 33  1  0
  6 34  1  0
  9 35  1  0
 10 36  1  0
 10 37  1  0
 11 38  1  0
 11 39  1  0
 12 40  1  0
 12 41  1  0
 16 42  1  0
 17 43  1  0
 18 44  1  0
 21 45  1  0
 22 46  1  0
 23 47  1  0
M  END
>  <Energy>  (692) 
167.55801265344576

>  <compound_id>  (692) 
17460

>  <target_id>  (692) 
1

>  <reference_id>  (692) 
54

>  <inspiration_ids>  (692) 
[66, 54]

>  <energy_score>  (692) 
81.38216474210651

>  <distance_score>  (692) 
16.431636072379437

>  <path>  (692) 
/opt/xchem-fragalysis-2/maxwin/BulkDock/SCRATCH/511014/C17460-P54/C17460-P54.minimised.mol

>  <scratch_subdir>  (692) 
/opt/xchem-fragalysis-2/maxwin/BulkDock/SCRATCH/511014/C17460-P54

>  <fragmenstein_runtime>  (692) 
50.028491258621216

>  <fragmenstein_outcome>  (692) 
too moved

>  <fragmenstein_mode>  (692) 
expansion

>  <fragmenstein_error>  (692) 


$$$$
C17461-P66
     RDKit          3D

 50 52  0  0  0  0  0  0  0  0999 V2000
    1.6683   -7.4085   30.5633 C   0  0  0  0  0  0  0  0  0  0  0  0
    1.0652   -8.5229   29.8377 N   0  0  0  0  0  0  0  0  0  0  0  0
   -0.3623   -8.5382   30.0094 C   0  0  0  0  0  0  0  0  0  0  0  0
    1.4698   -8.6735   28.4396 C   0  0  0  0  0  0  0  0  0  0  0  0
    1.4056  -10.3407   27.8111 C   0  0  0  0  0  0  0  0  0  0  0  0
    0.4208  -11.4484   27.9144 N   0  0  0  0  0  0  0  0  0  0  0  0
    0.3344  -13.2279   27.0146 C   0  0  0  0  0  0  0  0  0  0  0  0
    1.1271  -13.5017   26.1506 O   0  0  0  0  0  0  0  0  0  0  0  0
   -1.1154  -14.7737   27.7769 C   0  0  0  0  0  0  0  0  0  0  0  0
   -2.0820  -14.7522   29.2934 C   0  0  0  0  0  0  0  0  0  0  0  0
   -3.5025  -15.7303   29.8897 C   0  0  0  0  0  0  0  0  0  0  0  0
   -4.0892  -16.8862   28.9233 C   0  0  0  0  0  0  0  0  0  0  0  0
   -2.9835  -17.4809   27.6234 N   0  0  0  0  0  0  0  0  0  0  0  0
   -2.7542  -19.2622   27.3680 C   0  0  0  0  0  0  0  0  0  0  0  0
   -3.9183  -19.9809   27.5300 N   0  0  0  0  0  0  0  0  0  0  0  0
   -4.0308  -21.3233   27.3867 C   0  0  0  0  0  0  0  0  0  0  0  0
   -2.9649  -22.1290   27.3819 C   0  0  0  0  0  0  0  0  0  0  0  0
   -1.8170  -21.4073   27.4100 C   0  0  0  0  0  0  0  0  0  0  0  0
   -1.6698  -20.0189   27.2819 N   0  0  0  0  0  0  0  0  0  0  0  0
   -1.7175  -16.6675   27.4898 C   0  0  0  0  0  0  0  0  0  0  0  0
    1.3064   -7.3499   27.5589 C   0  0  0  0  0  0  0  0  0  0  0  0
    2.2046   -6.2649   27.5168 C   0  0  0  0  0  0  0  0  0  0  0  0
    2.0079   -5.3862   26.4060 C   0  0  0  0  0  0  0  0  0  0  0  0
    0.8929   -5.7441   25.6896 C   0  0  0  0  0  0  0  0  0  0  0  0
    0.0671   -7.0650   26.4133 S   0  0  0  0  0  0  0  0  0  0  0  0
    1.4567   -7.4996   31.6352 H   0  0  0  0  0  0  0  0  0  0  0  0
    1.2903   -6.4345   30.2350 H   0  0  0  0  0  0  0  0  0  0  0  0
    2.7598   -7.4150   30.4701 H   0  0  0  0  0  0  0  0  0  0  0  0
   -0.7705   -9.4528   29.5776 H   0  0  0  0  0  0  0  0  0  0  0  0
   -0.8416   -7.6678   29.5497 H   0  0  0  0  0  0  0  0  0  0  0  0
   -0.6339   -8.5545   31.0713 H   0  0  0  0  0  0  0  0  0  0  0  0
    2.5568   -8.6416   28.6217 H   0  0  0  0  0  0  0  0  0  0  0  0
    2.0511  -10.5356   27.0341 H   0  0  0  0  0  0  0  0  0  0  0  0
    2.0518  -10.6889   28.6394 H   0  0  0  0  0  0  0  0  0  0  0  0
   -0.2623  -11.4195   28.6695 H   0  0  0  0  0  0  0  0  0  0  0  0
   -2.0575  -14.7295   27.1268 H   0  0  0  0  0  0  0  0  0  0  0  0
   -2.5867  -13.7998   29.4004 H   0  0  0  0  0  0  0  0  0  0  0  0
   -1.3097  -14.9303   30.0758 H   0  0  0  0  0  0  0  0  0  0  0  0
   -4.0459  -14.8696   30.1230 H   0  0  0  0  0  0  0  0  0  0  0  0
   -3.2338  -16.1819   30.8652 H   0  0  0  0  0  0  0  0  0  0  0  0
   -5.0824  -17.1718   28.6741 H   0  0  0  0  0  0  0  0  0  0  0  0
   -4.2755  -17.5742   29.7906 H   0  0  0  0  0  0  0  0  0  0  0  0
   -5.0361  -21.7207   27.3647 H   0  0  0  0  0  0  0  0  0  0  0  0
   -3.0081  -23.2041   27.3761 H   0  0  0  0  0  0  0  0  0  0  0  0
   -0.8867  -21.9479   27.5203 H   0  0  0  0  0  0  0  0  0  0  0  0
   -2.3173  -16.4934   26.6101 H   0  0  0  0  0  0  0  0  0  0  0  0
   -0.9026  -17.4009   27.3768 H   0  0  0  0  0  0  0  0  0  0  0  0
    3.0510   -6.1895   28.1890 H   0  0  0  0  0  0  0  0  0  0  0  0
    2.6457   -4.5482   26.1553 H   0  0  0  0  0  0  0  0  0  0  0  0
    0.4851   -5.2693   24.8080 H   0  0  0  0  0  0  0  0  0  0  0  0
  1  2  1  0
  2  3  1  0
  2  4  1  0
  4  5  1  0
  5  6  1  0
  6  7  1  0
  7  8  2  0
  7  9  1  0
  9 10  1  0
 10 11  1  0
 11 12  1  0
 12 13  1  0
 13 14  1  0
 14 15  2  0
 15 16  1  0
 16 17  2  0
 17 18  1  0
 18 19  2  0
 13 20  1  0
  4 21  1  0
 21 22  2  0
 22 23  1  0
 23 24  2  0
 24 25  1  0
 20  9  1  0
 25 21  1  0
 19 14  1  0
  1 26  1  0
  1 27  1  0
  1 28  1  0
  3 29  1  0
  3 30  1  0
  3 31  1  0
  4 32  1  0
  5 33  1  0
  5 34  1  0
  6 35  1  0
  9 36  1  0
 10 37  1  0
 10 38  1  0
 11 39  1  0
 11 40  1  0
 12 41  1  0
 12 42  1  0
 16 43  1  0
 17 44  1  0
 18 45  1  0
 20 46  1  0
 20 47  1  0
 22 48  1  0
 23 49  1  0
 24 50  1  0
M  END
>  <Energy>  (693) 
637.23742374301708

>  <compound_id>  (693) 
17461

>  <target_id>  (693) 
1

>  <reference_id>  (693) 
66

>  <inspiration_ids>  (693) 
[66, 54]

>  <energy_score>  (693) 
608.3165785354201

>  <distance_score>  (693) 
13.662018865735657

>  <path>  (693) 
/opt/xchem-fragalysis-2/maxwin/BulkDock/SCRATCH/511014/C17461-P66/C17461-P66.minimised.mol

>  <scratch_subdir>  (693) 
/opt/xchem-fragalysis-2/maxwin/BulkDock/SCRATCH/511014/C17461-P66

>  <fragmenstein_runtime>  (693) 
46.54046607017517

>  <fragmenstein_outcome>  (693) 
too moved

>  <fragmenstein_mode>  (693) 
expansion

>  <fragmenstein_error>  (693) 


$$$$
C17461-P54
     RDKit          3D

 50 52  0  0  0  0  0  0  0  0999 V2000
    1.2462   -8.2058   19.5247 C   0  0  0  0  0  0  0  0  0  0  0  0
    0.7068   -9.2402   18.6484 N   0  0  0  0  0  0  0  0  0  0  0  0
    0.3190   -8.6873   17.3565 C   0  0  0  0  0  0  0  0  0  0  0  0
    1.5432  -10.4708   18.5835 C   0  0  0  0  0  0  0  0  0  0  0  0
    0.7663  -11.7753   17.9407 C   0  0  0  0  0  0  0  0  0  0  0  0
   -0.6068  -12.2691   18.4353 N   0  0  0  0  0  0  0  0  0  0  0  0
   -1.2290  -13.6246   18.3927 C   0  0  0  0  0  0  0  0  0  0  0  0
   -0.7771  -14.6799   18.0334 O   0  0  0  0  0  0  0  0  0  0  0  0
   -2.8325  -13.6883   18.7967 C   0  0  0  0  0  0  0  0  0  0  0  0
   -3.1996  -12.8530   20.0301 C   0  0  0  0  0  0  0  0  0  0  0  0
   -4.5020  -13.2256   20.7405 C   0  0  0  0  0  0  0  0  0  0  0  0
   -5.4393  -14.1330   19.9745 C   0  0  0  0  0  0  0  0  0  0  0  0
   -4.7003  -15.3459   19.7361 N   0  0  0  0  0  0  0  0  0  0  0  0
   -5.2521  -16.5473   20.1812 C   0  0  0  0  0  0  0  0  0  0  0  0
   -4.6347  -17.7036   19.9231 N   0  0  0  0  0  0  0  0  0  0  0  0
   -5.1690  -18.8518   20.4128 C   0  0  0  0  0  0  0  0  0  0  0  0
   -6.3277  -18.9190   21.1394 C   0  0  0  0  0  0  0  0  0  0  0  0
   -6.9074  -17.7049   21.3681 C   0  0  0  0  0  0  0  0  0  0  0  0
   -6.3848  -16.5312   20.9333 N   0  0  0  0  0  0  0  0  0  0  0  0
   -3.4900  -15.2021   18.8483 C   0  0  0  0  0  0  0  0  0  0  0  0
    2.9789  -10.1648   18.0301 C   0  0  0  0  0  0  0  0  0  0  0  0
    4.1123   -9.8363   18.7719 C   0  0  0  0  0  0  0  0  0  0  0  0
    5.2495   -9.5015   17.9735 C   0  0  0  0  0  0  0  0  0  0  0  0
    4.9645   -9.5761   16.6317 C   0  0  0  0  0  0  0  0  0  0  0  0
    3.3531  -10.0890   16.3518 S   0  0  0  0  0  0  0  0  0  0  0  0
    0.4936   -7.4277   19.6967 H   0  0  0  0  0  0  0  0  0  0  0  0
    1.4920   -8.6157   20.5089 H   0  0  0  0  0  0  0  0  0  0  0  0
    2.1370   -7.7200   19.1133 H   0  0  0  0  0  0  0  0  0  0  0  0
   -0.1099   -9.4494   16.6992 H   0  0  0  0  0  0  0  0  0  0  0  0
    1.1474   -8.1975   16.8362 H   0  0  0  0  0  0  0  0  0  0  0  0
   -0.4663   -7.9350   17.4961 H   0  0  0  0  0  0  0  0  0  0  0  0
    1.6938  -10.7855   19.6276 H   0  0  0  0  0  0  0  0  0  0  0  0
    1.4341  -12.6408   18.0276 H   0  0  0  0  0  0  0  0  0  0  0  0
    0.6253  -11.6067   16.8673 H   0  0  0  0  0  0  0  0  0  0  0  0
   -1.3031  -11.5930   18.7164 H   0  0  0  0  0  0  0  0  0  0  0  0
   -3.3260  -13.2109   17.9361 H   0  0  0  0  0  0  0  0  0  0  0  0
   -2.3774  -12.8438   20.7540 H   0  0  0  0  0  0  0  0  0  0  0  0
   -3.2885  -11.8081   19.7038 H   0  0  0  0  0  0  0  0  0  0  0  0
   -5.0325  -12.3031   20.9972 H   0  0  0  0  0  0  0  0  0  0  0  0
   -4.2239  -13.7518   21.6571 H   0  0  0  0  0  0  0  0  0  0  0  0
   -6.3607  -14.2556   20.5533 H   0  0  0  0  0  0  0  0  0  0  0  0
   -5.7316  -13.6740   19.0222 H   0  0  0  0  0  0  0  0  0  0  0  0
   -4.6038  -19.7488   20.1734 H   0  0  0  0  0  0  0  0  0  0  0  0
   -6.7416  -19.8514   21.4928 H   0  0  0  0  0  0  0  0  0  0  0  0
   -7.8357  -17.6209   21.9228 H   0  0  0  0  0  0  0  0  0  0  0  0
   -2.7206  -15.9377   19.0890 H   0  0  0  0  0  0  0  0  0  0  0  0
   -3.8046  -15.4387   17.8234 H   0  0  0  0  0  0  0  0  0  0  0  0
    4.1138   -9.8313   19.8565 H   0  0  0  0  0  0  0  0  0  0  0  0
    6.2218   -9.2426   18.3715 H   0  0  0  0  0  0  0  0  0  0  0  0
    5.6248   -9.3885   15.7957 H   0  0  0  0  0  0  0  0  0  0  0  0
  1  2  1  0
  2  3  1  0
  2  4  1  0
  4  5  1  0
  5  6  1  0
  6  7  1  0
  7  8  2  0
  7  9  1  0
  9 10  1  0
 10 11  1  0
 11 12  1  0
 12 13  1  0
 13 14  1  0
 14 15  2  0
 15 16  1  0
 16 17  2  0
 17 18  1  0
 18 19  2  0
 13 20  1  0
  4 21  1  0
 21 22  2  0
 22 23  1  0
 23 24  2  0
 24 25  1  0
 20  9  1  0
 25 21  1  0
 19 14  1  0
  1 26  1  0
  1 27  1  0
  1 28  1  0
  3 29  1  0
  3 30  1  0
  3 31  1  0
  4 32  1  0
  5 33  1  0
  5 34  1  0
  6 35  1  0
  9 36  1  0
 10 37  1  0
 10 38  1  0
 11 39  1  0
 11 40  1  0
 12 41  1  0
 12 42  1  0
 16 43  1  0
 17 44  1  0
 18 45  1  0
 20 46  1  0
 20 47  1  0
 22 48  1  0
 23 49  1  0
 24 50  1  0
M  END
>  <Energy>  (694) 
0.44507302846716934

>  <compound_id>  (694) 
17461

>  <target_id>  (694) 
1

>  <reference_id>  (694) 
54

>  <inspiration_ids>  (694) 
[66, 54]

>  <energy_score>  (694) 
-28.475772179115125

>  <distance_score>  (694) 
14.048603808142227

>  <path>  (694) 
/opt/xchem-fragalysis-2/maxwin/BulkDock/SCRATCH/511014/C17461-P54/C17461-P54.minimised.mol

>  <scratch_subdir>  (694) 
/opt/xchem-fragalysis-2/maxwin/BulkDock/SCRATCH/511014/C17461-P54

>  <fragmenstein_runtime>  (694) 
53.8766975402832

>  <fragmenstein_outcome>  (694) 
too moved

>  <fragmenstein_mode>  (694) 
expansion

>  <fragmenstein_error>  (694) 


$$$$
C17464-P66
     RDKit          3D

 42 45  0  0  0  0  0  0  0  0999 V2000
   -2.6433  -13.7036   22.8258 C   0  0  0  0  0  0  0  0  0  0  0  0
   -3.6992  -14.4991   22.9699 C   0  0  0  0  0  0  0  0  0  0  0  0
   -3.7517  -15.5774   23.9514 N   0  0  0  0  0  0  0  0  0  0  0  0
   -2.7809  -16.2245   24.9204 C   0  0  0  0  0  0  0  0  0  0  0  0
   -2.6536  -18.2291   25.5516 C   0  0  0  0  0  0  0  0  0  0  0  0
   -4.1687  -19.9508   25.4858 C   0  0  0  0  0  0  0  0  0  0  0  0
   -5.2291  -21.5756   26.4181 N   0  0  0  0  0  0  0  0  0  0  0  0
   -6.7632  -21.6110   27.7245 C   0  0  0  0  0  0  0  0  0  0  0  0
   -8.4368  -22.4770   28.1867 C   0  0  0  0  0  0  0  0  0  0  0  0
   -9.9394  -21.9612   28.3825 C   0  0  0  0  0  0  0  0  0  0  0  0
  -11.1791  -22.5313   28.8431 C   0  0  0  0  0  0  0  0  0  0  0  0
  -11.1431  -23.8410   29.2328 C   0  0  0  0  0  0  0  0  0  0  0  0
   -9.9623  -24.4897   28.9458 C   0  0  0  0  0  0  0  0  0  0  0  0
   -8.8546  -23.7381   28.3143 C   0  0  0  0  0  0  0  0  0  0  0  0
   -8.6560  -23.7070   26.6165 C   0  0  0  0  0  0  0  0  0  0  0  0
  -10.2404  -24.4980   25.9418 C   0  0  0  0  0  0  0  0  0  0  0  0
  -11.3381  -23.9522   25.2644 C   0  0  0  0  0  0  0  0  0  0  0  0
  -12.6136  -24.4477   25.6924 C   0  0  0  0  0  0  0  0  0  0  0  0
  -12.5042  -25.5842   26.4344 C   0  0  0  0  0  0  0  0  0  0  0  0
  -10.8899  -26.0363   26.6443 S   0  0  0  0  0  0  0  0  0  0  0  0
   -6.6846  -23.0067   26.1795 C   0  0  0  0  0  0  0  0  0  0  0  0
   -1.8394  -15.2562   24.6794 N   0  0  0  0  0  0  0  0  0  0  0  0
   -1.7375  -14.1898   23.6951 C   0  0  0  0  0  0  0  0  0  0  0  0
   -2.4843  -12.9590   22.0745 H   0  0  0  0  0  0  0  0  0  0  0  0
   -4.5981  -14.4122   22.3709 H   0  0  0  0  0  0  0  0  0  0  0  0
   -1.6384  -18.5082   25.7560 H   0  0  0  0  0  0  0  0  0  0  0  0
   -2.6023  -17.8375   26.6424 H   0  0  0  0  0  0  0  0  0  0  0  0
   -3.1465  -19.7599   26.2401 H   0  0  0  0  0  0  0  0  0  0  0  0
   -4.0372  -20.3952   24.4765 H   0  0  0  0  0  0  0  0  0  0  0  0
   -7.6792  -21.4294   27.1414 H   0  0  0  0  0  0  0  0  0  0  0  0
   -6.9031  -20.5555   27.6668 H   0  0  0  0  0  0  0  0  0  0  0  0
  -10.0099  -21.0034   28.0022 H   0  0  0  0  0  0  0  0  0  0  0  0
  -12.0798  -21.9350   28.8945 H   0  0  0  0  0  0  0  0  0  0  0  0
  -11.9939  -24.3405   29.6647 H   0  0  0  0  0  0  0  0  0  0  0  0
   -9.8244  -25.5451   29.1644 H   0  0  0  0  0  0  0  0  0  0  0  0
   -9.6564  -23.3077   26.8080 H   0  0  0  0  0  0  0  0  0  0  0  0
  -11.3248  -23.1339   24.5646 H   0  0  0  0  0  0  0  0  0  0  0  0
  -13.5588  -24.0196   25.3822 H   0  0  0  0  0  0  0  0  0  0  0  0
  -13.3015  -26.2000   26.8201 H   0  0  0  0  0  0  0  0  0  0  0  0
   -6.2777  -23.5977   25.3327 H   0  0  0  0  0  0  0  0  0  0  0  0
   -6.1537  -23.3981   27.0458 H   0  0  0  0  0  0  0  0  0  0  0  0
   -0.7113  -13.9518   23.4789 H   0  0  0  0  0  0  0  0  0  0  0  0
  1  2  2  0
  2  3  1  0
  3  4  2  0
  4  5  1  0
  5  6  1  0
  6  7  1  0
  7  8  1  0
  8  9  1  0
  9 10  2  0
 10 11  1  0
 11 12  2  0
 12 13  1  0
 13 14  2  0
 14 15  1  0
 15 16  1  0
 16 17  2  0
 17 18  1  0
 18 19  2  0
 19 20  1  0
 15 21  1  0
  4 22  1  0
 22 23  2  0
 23  1  1  0
 21  7  1  0
 14  9  1  0
 20 16  1  0
  1 24  1  0
  2 25  1  0
  5 26  1  0
  5 27  1  0
  6 28  1  0
  6 29  1  0
  8 30  1  0
  8 31  1  0
 10 32  1  0
 11 33  1  0
 12 34  1  0
 13 35  1  0
 15 36  1  0
 17 37  1  0
 18 38  1  0
 19 39  1  0
 21 40  1  0
 21 41  1  0
 23 42  1  0
M  END
>  <Energy>  (695) 
1571.2644153620222

>  <compound_id>  (695) 
17464

>  <target_id>  (695) 
1

>  <reference_id>  (695) 
66

>  <inspiration_ids>  (695) 
[66, 54]

>  <energy_score>  (695) 
1448.0206215132346

>  <distance_score>  (695) 
15.449352891629822

>  <path>  (695) 
/opt/xchem-fragalysis-2/maxwin/BulkDock/SCRATCH/511014/C17464-P66/C17464-P66.minimised.mol

>  <scratch_subdir>  (695) 
/opt/xchem-fragalysis-2/maxwin/BulkDock/SCRATCH/511014/C17464-P66

>  <fragmenstein_runtime>  (695) 
41.2605996131897

>  <fragmenstein_outcome>  (695) 
too moved

>  <fragmenstein_mode>  (695) 
expansion

>  <fragmenstein_error>  (695) 


$$$$
C17464-P54
     RDKit          3D

 42 45  0  0  0  0  0  0  0  0999 V2000
    3.5958  -10.7276   24.8064 C   0  0  0  0  0  0  0  0  0  0  0  0
    2.8357  -10.0996   25.7583 C   0  0  0  0  0  0  0  0  0  0  0  0
    1.9830  -10.7456   26.6031 N   0  0  0  0  0  0  0  0  0  0  0  0
    1.8838  -12.1010   26.5129 C   0  0  0  0  0  0  0  0  0  0  0  0
    0.7907  -12.8273   27.4074 C   0  0  0  0  0  0  0  0  0  0  0  0
    0.9465  -14.4851   27.7086 C   0  0  0  0  0  0  0  0  0  0  0  0
    0.1987  -16.0828   28.4109 N   0  0  0  0  0  0  0  0  0  0  0  0
    1.0140  -16.5006   29.4985 C   0  0  0  0  0  0  0  0  0  0  0  0
    0.0791  -16.6437   30.7230 C   0  0  0  0  0  0  0  0  0  0  0  0
    0.5549  -16.6950   32.5448 C   0  0  0  0  0  0  0  0  0  0  0  0
   -0.3509  -16.3466   33.4788 C   0  0  0  0  0  0  0  0  0  0  0  0
   -1.4357  -15.8870   32.7688 C   0  0  0  0  0  0  0  0  0  0  0  0
   -1.9366  -16.1218   31.3407 C   0  0  0  0  0  0  0  0  0  0  0  0
   -1.2446  -16.8959   30.4786 C   0  0  0  0  0  0  0  0  0  0  0  0
   -1.9288  -18.3100   29.2281 C   0  0  0  0  0  0  0  0  0  0  0  0
   -3.5492  -19.6558   29.4399 C   0  0  0  0  0  0  0  0  0  0  0  0
   -4.7589  -19.9224   28.0382 C   0  0  0  0  0  0  0  0  0  0  0  0
   -5.9608  -20.7493   27.8156 C   0  0  0  0  0  0  0  0  0  0  0  0
   -4.9779  -21.0806   26.9811 C   0  0  0  0  0  0  0  0  0  0  0  0
   -3.7948  -21.5910   28.7233 S   0  0  0  0  0  0  0  0  0  0  0  0
   -0.7096  -17.6650   27.9691 C   0  0  0  0  0  0  0  0  0  0  0  0
    2.5947  -12.7871   25.5924 N   0  0  0  0  0  0  0  0  0  0  0  0
    3.4323  -12.0899   24.7732 C   0  0  0  0  0  0  0  0  0  0  0  0
    4.2650  -10.2002   24.1451 H   0  0  0  0  0  0  0  0  0  0  0  0
    2.8729   -9.0220   25.8885 H   0  0  0  0  0  0  0  0  0  0  0  0
   -0.1791  -12.6277   26.9411 H   0  0  0  0  0  0  0  0  0  0  0  0
    0.7728  -12.3196   28.3760 H   0  0  0  0  0  0  0  0  0  0  0  0
    0.9728  -14.7587   26.6494 H   0  0  0  0  0  0  0  0  0  0  0  0
    1.7780  -14.3157   28.3950 H   0  0  0  0  0  0  0  0  0  0  0  0
    1.8458  -15.8415   29.5075 H   0  0  0  0  0  0  0  0  0  0  0  0
    1.5745  -17.3926   29.2645 H   0  0  0  0  0  0  0  0  0  0  0  0
    1.6365  -16.7359   32.7020 H   0  0  0  0  0  0  0  0  0  0  0  0
   -0.1464  -15.8934   34.4420 H   0  0  0  0  0  0  0  0  0  0  0  0
   -1.4132  -14.8102   33.0577 H   0  0  0  0  0  0  0  0  0  0  0  0
   -2.2238  -15.1956   30.8252 H   0  0  0  0  0  0  0  0  0  0  0  0
   -1.1457  -19.0130   29.2513 H   0  0  0  0  0  0  0  0  0  0  0  0
   -5.1384  -19.2010   27.2809 H   0  0  0  0  0  0  0  0  0  0  0  0
   -6.4917  -21.3980   28.4964 H   0  0  0  0  0  0  0  0  0  0  0  0
   -5.0357  -21.6990   26.0999 H   0  0  0  0  0  0  0  0  0  0  0  0
   -0.0456  -18.4981   28.0137 H   0  0  0  0  0  0  0  0  0  0  0  0
   -1.0741  -17.7119   26.9424 H   0  0  0  0  0  0  0  0  0  0  0  0
    3.9795  -12.7048   24.0640 H   0  0  0  0  0  0  0  0  0  0  0  0
  1  2  2  0
  2  3  1  0
  3  4  2  0
  4  5  1  0
  5  6  1  0
  6  7  1  0
  7  8  1  0
  8  9  1  0
  9 10  2  0
 10 11  1  0
 11 12  2  0
 12 13  1  0
 13 14  2  0
 14 15  1  0
 15 16  1  0
 16 17  2  0
 17 18  1  0
 18 19  2  0
 19 20  1  0
 15 21  1  0
  4 22  1  0
 22 23  2  0
 23  1  1  0
 21  7  1  0
 14  9  1  0
 20 16  1  0
  1 24  1  0
  2 25  1  0
  5 26  1  0
  5 27  1  0
  6 28  1  0
  6 29  1  0
  8 30  1  0
  8 31  1  0
 10 32  1  0
 11 33  1  0
 12 34  1  0
 13 35  1  0
 15 36  1  0
 17 37  1  0
 18 38  1  0
 19 39  1  0
 21 40  1  0
 21 41  1  0
 23 42  1  0
M  END
>  <Energy>  (696) 
962.97842917705577

>  <compound_id>  (696) 
17464

>  <target_id>  (696) 
1

>  <reference_id>  (696) 
54

>  <inspiration_ids>  (696) 
[66, 54]

>  <energy_score>  (696) 
839.7346353282659

>  <distance_score>  (696) 
13.852611252728686

>  <path>  (696) 
/opt/xchem-fragalysis-2/maxwin/BulkDock/SCRATCH/511014/C17464-P54/C17464-P54.minimised.mol

>  <scratch_subdir>  (696) 
/opt/xchem-fragalysis-2/maxwin/BulkDock/SCRATCH/511014/C17464-P54

>  <fragmenstein_runtime>  (696) 
34.96092247962952

>  <fragmenstein_outcome>  (696) 
too moved

>  <fragmenstein_mode>  (696) 
expansion

>  <fragmenstein_error>  (696) 


$$$$
C17472-P66
     RDKit          3D

 38 39  0  0  0  0  0  0  0  0999 V2000
   -3.9384  -21.2002   20.8869 C   0  0  0  0  0  0  0  0  0  0  0  0
   -3.2464  -19.9661   21.3444 N   0  0  0  0  0  0  0  0  0  0  0  0
   -4.2454  -20.1123   22.5261 C   0  0  0  0  0  0  0  0  0  0  0  0
   -4.0209  -21.1232   23.6680 C   0  0  0  0  0  0  0  0  0  0  0  0
   -3.5154  -20.6524   24.8256 N   0  0  0  0  0  0  0  0  0  0  0  0
   -3.4555  -21.5156   25.8566 C   0  0  0  0  0  0  0  0  0  0  0  0
   -3.8872  -22.8167   25.7916 C   0  0  0  0  0  0  0  0  0  0  0  0
   -4.3921  -23.2083   24.5783 C   0  0  0  0  0  0  0  0  0  0  0  0
   -4.4832  -22.3849   23.5156 N   0  0  0  0  0  0  0  0  0  0  0  0
   -3.2829  -18.6321   20.8317 C   0  0  0  0  0  0  0  0  0  0  0  0
   -3.9515  -18.1492   19.9561 O   0  0  0  0  0  0  0  0  0  0  0  0
   -2.2000  -17.7786   21.4917 C   0  0  0  0  0  0  0  0  0  0  0  0
   -0.8497  -18.1351   20.8786 C   0  0  0  0  0  0  0  0  0  0  0  0
   -0.1205  -16.9058   20.3305 N   0  0  0  0  0  0  0  0  0  0  0  0
    0.4462  -17.0822   18.6779 S   0  0  0  0  0  0  0  0  0  0  0  0
    1.2836  -18.2642   18.6595 O   0  0  0  0  0  0  0  0  0  0  0  0
   -0.7326  -17.0000   17.8395 O   0  0  0  0  0  0  0  0  0  0  0  0
    1.5122  -15.7025   18.0098 C   0  0  0  0  0  0  0  0  0  0  0  0
    1.1941  -14.4768   17.4322 C   0  0  0  0  0  0  0  0  0  0  0  0
    2.3293  -13.7547   16.9196 C   0  0  0  0  0  0  0  0  0  0  0  0
    3.4959  -14.4590   17.0930 C   0  0  0  0  0  0  0  0  0  0  0  0
    3.1861  -16.0259   17.7237 S   0  0  0  0  0  0  0  0  0  0  0  0
   -3.5466  -21.3186   19.8641 H   0  0  0  0  0  0  0  0  0  0  0  0
   -3.5815  -22.1120   21.3732 H   0  0  0  0  0  0  0  0  0  0  0  0
   -5.0184  -21.1403   20.6884 H   0  0  0  0  0  0  0  0  0  0  0  0
   -5.3098  -20.0511   22.2365 H   0  0  0  0  0  0  0  0  0  0  0  0
   -4.1435  -19.1437   23.0438 H   0  0  0  0  0  0  0  0  0  0  0  0
   -3.0129  -21.1134   26.7619 H   0  0  0  0  0  0  0  0  0  0  0  0
   -3.8105  -23.4851   26.6339 H   0  0  0  0  0  0  0  0  0  0  0  0
   -4.7622  -24.2133   24.4100 H   0  0  0  0  0  0  0  0  0  0  0  0
   -2.1903  -17.9651   22.5710 H   0  0  0  0  0  0  0  0  0  0  0  0
   -2.4544  -16.7224   21.3490 H   0  0  0  0  0  0  0  0  0  0  0  0
   -0.1989  -18.5765   21.6429 H   0  0  0  0  0  0  0  0  0  0  0  0
   -0.9523  -18.8778   20.0795 H   0  0  0  0  0  0  0  0  0  0  0  0
    0.6895  -16.7044   20.9408 H   0  0  0  0  0  0  0  0  0  0  0  0
    0.1680  -14.1349   17.3689 H   0  0  0  0  0  0  0  0  0  0  0  0
    2.2843  -12.7738   16.4630 H   0  0  0  0  0  0  0  0  0  0  0  0
    4.5026  -14.1661   16.8306 H   0  0  0  0  0  0  0  0  0  0  0  0
  1  2  1  0
  2  3  1  0
  3  4  1  0
  4  5  2  0
  5  6  1  0
  6  7  2  0
  7  8  1  0
  8  9  2  0
  2 10  1  0
 10 11  2  0
 10 12  1  0
 12 13  1  0
 13 14  1  0
 14 15  1  0
 15 16  2  0
 15 17  2  0
 15 18  1  0
 18 19  2  0
 19 20  1  0
 20 21  2  0
 21 22  1  0
  9  4  1  0
 22 18  1  0
  1 23  1  0
  1 24  1  0
  1 25  1  0
  3 26  1  0
  3 27  1  0
  6 28  1  0
  7 29  1  0
  8 30  1  0
 12 31  1  0
 12 32  1  0
 13 33  1  0
 13 34  1  0
 14 35  1  0
 19 36  1  0
 20 37  1  0
 21 38  1  0
M  END
>  <Energy>  (697) 
51.185384082059322

>  <compound_id>  (697) 
17472

>  <target_id>  (697) 
1

>  <reference_id>  (697) 
66

>  <inspiration_ids>  (697) 
[66, 54]

>  <energy_score>  (697) 
48.68636150333447

>  <distance_score>  (697) 
13.617675776708476

>  <path>  (697) 
/opt/xchem-fragalysis-2/maxwin/BulkDock/SCRATCH/511014/C17472-P66/C17472-P66.minimised.mol

>  <scratch_subdir>  (697) 
/opt/xchem-fragalysis-2/maxwin/BulkDock/SCRATCH/511014/C17472-P66

>  <fragmenstein_runtime>  (697) 
34.198426485061646

>  <fragmenstein_outcome>  (697) 
too moved

>  <fragmenstein_mode>  (697) 
expansion

>  <fragmenstein_error>  (697) 


$$$$
C17472-P54
     RDKit          3D

 38 39  0  0  0  0  0  0  0  0999 V2000
   -3.6289  -18.7536   24.3853 C   0  0  0  0  0  0  0  0  0  0  0  0
   -3.4995  -17.3249   23.9977 N   0  0  0  0  0  0  0  0  0  0  0  0
   -3.2725  -17.1661   25.5193 C   0  0  0  0  0  0  0  0  0  0  0  0
   -4.3941  -16.9555   26.5525 C   0  0  0  0  0  0  0  0  0  0  0  0
   -3.9572  -16.6915   27.7994 N   0  0  0  0  0  0  0  0  0  0  0  0
   -4.8271  -16.0970   28.6351 C   0  0  0  0  0  0  0  0  0  0  0  0
   -6.0998  -15.7474   28.2694 C   0  0  0  0  0  0  0  0  0  0  0  0
   -6.4862  -16.1559   27.0208 C   0  0  0  0  0  0  0  0  0  0  0  0
   -5.6688  -16.7929   26.1632 N   0  0  0  0  0  0  0  0  0  0  0  0
   -4.4907  -16.3798   23.5375 C   0  0  0  0  0  0  0  0  0  0  0  0
   -5.6844  -16.4849   23.4375 O   0  0  0  0  0  0  0  0  0  0  0  0
   -3.7646  -15.0977   23.1783 C   0  0  0  0  0  0  0  0  0  0  0  0
   -4.5431  -14.1197   22.3187 C   0  0  0  0  0  0  0  0  0  0  0  0
   -3.5388  -13.3555   21.4760 N   0  0  0  0  0  0  0  0  0  0  0  0
   -3.9309  -11.7354   21.0447 S   0  0  0  0  0  0  0  0  0  0  0  0
   -5.1716  -11.8206   20.3026 O   0  0  0  0  0  0  0  0  0  0  0  0
   -3.8271  -10.9415   22.2528 O   0  0  0  0  0  0  0  0  0  0  0  0
   -2.7688  -10.9717   19.8348 C   0  0  0  0  0  0  0  0  0  0  0  0
   -1.9662  -11.4587   18.8132 C   0  0  0  0  0  0  0  0  0  0  0  0
   -1.3188  -10.4271   18.0467 C   0  0  0  0  0  0  0  0  0  0  0  0
   -1.6431   -9.1723   18.5011 C   0  0  0  0  0  0  0  0  0  0  0  0
   -2.7081   -9.2405   19.8433 S   0  0  0  0  0  0  0  0  0  0  0  0
   -4.0061  -19.2376   23.4736 H   0  0  0  0  0  0  0  0  0  0  0  0
   -4.3701  -19.0176   25.1451 H   0  0  0  0  0  0  0  0  0  0  0  0
   -2.6495  -19.2244   24.5537 H   0  0  0  0  0  0  0  0  0  0  0  0
   -2.4688  -17.8004   25.9374 H   0  0  0  0  0  0  0  0  0  0  0  0
   -2.7735  -16.1828   25.5449 H   0  0  0  0  0  0  0  0  0  0  0  0
   -4.4515  -15.8850   29.6319 H   0  0  0  0  0  0  0  0  0  0  0  0
   -6.7511  -15.2169   28.9451 H   0  0  0  0  0  0  0  0  0  0  0  0
   -7.4819  -15.9430   26.6478 H   0  0  0  0  0  0  0  0  0  0  0  0
   -2.8463  -15.3851   22.6610 H   0  0  0  0  0  0  0  0  0  0  0  0
   -3.5068  -14.5926   24.1142 H   0  0  0  0  0  0  0  0  0  0  0  0
   -5.2353  -14.6264   21.6385 H   0  0  0  0  0  0  0  0  0  0  0  0
   -5.1088  -13.4294   22.9525 H   0  0  0  0  0  0  0  0  0  0  0  0
   -3.2779  -13.8796   20.6401 H   0  0  0  0  0  0  0  0  0  0  0  0
   -1.8535  -12.5169   18.6119 H   0  0  0  0  0  0  0  0  0  0  0  0
   -0.6587  -10.6122   17.2081 H   0  0  0  0  0  0  0  0  0  0  0  0
   -1.3015   -8.2179   18.1246 H   0  0  0  0  0  0  0  0  0  0  0  0
  1  2  1  0
  2  3  1  0
  3  4  1  0
  4  5  2  0
  5  6  1  0
  6  7  2  0
  7  8  1  0
  8  9  2  0
  2 10  1  0
 10 11  2  0
 10 12  1  0
 12 13  1  0
 13 14  1  0
 14 15  1  0
 15 16  2  0
 15 17  2  0
 15 18  1  0
 18 19  2  0
 19 20  1  0
 20 21  2  0
 21 22  1  0
  9  4  1  0
 22 18  1  0
  1 23  1  0
  1 24  1  0
  1 25  1  0
  3 26  1  0
  3 27  1  0
  6 28  1  0
  7 29  1  0
  8 30  1  0
 12 31  1  0
 12 32  1  0
 13 33  1  0
 13 34  1  0
 14 35  1  0
 19 36  1  0
 20 37  1  0
 21 38  1  0
M  END
>  <Energy>  (698) 
50.138075417924505

>  <compound_id>  (698) 
17472

>  <target_id>  (698) 
1

>  <reference_id>  (698) 
54

>  <inspiration_ids>  (698) 
[66, 54]

>  <energy_score>  (698) 
47.63905283920093

>  <distance_score>  (698) 
13.922369625314106

>  <path>  (698) 
/opt/xchem-fragalysis-2/maxwin/BulkDock/SCRATCH/511014/C17472-P54/C17472-P54.minimised.mol

>  <scratch_subdir>  (698) 
/opt/xchem-fragalysis-2/maxwin/BulkDock/SCRATCH/511014/C17472-P54

>  <fragmenstein_runtime>  (698) 
29.482399702072144

>  <fragmenstein_outcome>  (698) 
too moved

>  <fragmenstein_mode>  (698) 
expansion

>  <fragmenstein_error>  (698) 


$$$$
C17476-P66
     RDKit          3D

 52 56  0  0  0  0  0  0  0  0999 V2000
   -6.7121  -13.1508   22.0625 O   0  0  0  0  0  0  0  0  0  0  0  0
   -7.0648  -12.2650   22.7961 C   0  0  0  0  0  0  0  0  0  0  0  0
   -6.5777  -10.8811   22.9294 N   0  0  0  0  0  0  0  0  0  0  0  0
   -5.5368  -10.0942   22.1070 C   0  0  0  0  0  0  0  0  0  0  0  0
   -4.3692   -9.2399   22.7839 C   0  0  0  0  0  0  0  0  0  0  0  0
   -3.2045   -8.6756   21.9115 C   0  0  0  0  0  0  0  0  0  0  0  0
   -2.7174   -9.0236   20.6595 C   0  0  0  0  0  0  0  0  0  0  0  0
   -1.5841   -8.2440   20.2386 C   0  0  0  0  0  0  0  0  0  0  0  0
   -1.1899   -7.3397   21.1924 C   0  0  0  0  0  0  0  0  0  0  0  0
   -2.2196   -7.3891   22.5570 S   0  0  0  0  0  0  0  0  0  0  0  0
   -8.3219  -12.7084   23.6383 C   0  0  0  0  0  0  0  0  0  0  0  0
   -8.3833  -13.0772   24.9422 C   0  0  0  0  0  0  0  0  0  0  0  0
   -9.5028  -13.7124   25.5049 N   0  0  0  0  0  0  0  0  0  0  0  0
  -10.5471  -14.0559   24.7197 C   0  0  0  0  0  0  0  0  0  0  0  0
  -10.6041  -13.8485   23.4520 N   0  0  0  0  0  0  0  0  0  0  0  0
   -9.5600  -13.1478   22.8393 C   0  0  0  0  0  0  0  0  0  0  0  0
   -9.6514  -12.7990   21.6650 O   0  0  0  0  0  0  0  0  0  0  0  0
  -11.6946  -14.6393   25.5165 C   0  0  0  0  0  0  0  0  0  0  0  0
  -11.0956  -15.1420   26.8995 C   0  0  0  0  0  0  0  0  0  0  0  0
  -12.1361  -14.8455   28.0992 C   0  0  0  0  0  0  0  0  0  0  0  0
  -12.8110  -16.2362   28.9193 C   0  0  0  0  0  0  0  0  0  0  0  0
  -11.8031  -17.7887   28.5080 N   0  0  0  0  0  0  0  0  0  0  0  0
  -12.2621  -19.5687   28.8673 C   0  0  0  0  0  0  0  0  0  0  0  0
  -13.2239  -20.3520   29.1755 N   0  0  0  0  0  0  0  0  0  0  0  0
  -13.0613  -21.6655   29.9627 C   0  0  0  0  0  0  0  0  0  0  0  0
  -12.0408  -22.2725   30.5490 C   0  0  0  0  0  0  0  0  0  0  0  0
  -11.1249  -21.3477   30.4505 C   0  0  0  0  0  0  0  0  0  0  0  0
  -11.1501  -20.2707   29.5939 N   0  0  0  0  0  0  0  0  0  0  0  0
  -10.6787  -16.8905   27.1275 C   0  0  0  0  0  0  0  0  0  0  0  0
   -9.7307  -14.1562   26.8742 C   0  0  0  0  0  0  0  0  0  0  0  0
   -7.1623  -10.3865   23.5931 H   0  0  0  0  0  0  0  0  0  0  0  0
   -5.1098  -10.8126   21.4047 H   0  0  0  0  0  0  0  0  0  0  0  0
   -6.1371   -9.4052   21.5005 H   0  0  0  0  0  0  0  0  0  0  0  0
   -3.9435   -9.8383   23.5946 H   0  0  0  0  0  0  0  0  0  0  0  0
   -4.8595   -8.3890   23.2764 H   0  0  0  0  0  0  0  0  0  0  0  0
   -3.1428   -9.8140   20.0513 H   0  0  0  0  0  0  0  0  0  0  0  0
   -1.0709   -8.3758   19.2937 H   0  0  0  0  0  0  0  0  0  0  0  0
   -0.3568   -6.6520   21.1504 H   0  0  0  0  0  0  0  0  0  0  0  0
   -7.5434  -12.9583   25.6184 H   0  0  0  0  0  0  0  0  0  0  0  0
  -12.3759  -13.7975   25.6990 H   0  0  0  0  0  0  0  0  0  0  0  0
  -12.2397  -15.3304   24.8749 H   0  0  0  0  0  0  0  0  0  0  0  0
  -11.6720  -14.2084   28.8651 H   0  0  0  0  0  0  0  0  0  0  0  0
  -12.9970  -14.2695   27.7380 H   0  0  0  0  0  0  0  0  0  0  0  0
  -12.7661  -16.0367   30.0010 H   0  0  0  0  0  0  0  0  0  0  0  0
  -13.8021  -16.1854   28.4230 H   0  0  0  0  0  0  0  0  0  0  0  0
  -14.0257  -22.0229   30.3442 H   0  0  0  0  0  0  0  0  0  0  0  0
  -12.0808  -23.0879   31.2443 H   0  0  0  0  0  0  0  0  0  0  0  0
  -10.3967  -21.2691   31.2380 H   0  0  0  0  0  0  0  0  0  0  0  0
  -10.4206  -17.3663   26.1943 H   0  0  0  0  0  0  0  0  0  0  0  0
   -9.5310  -16.8599   27.0783 H   0  0  0  0  0  0  0  0  0  0  0  0
   -8.8008  -14.6670   27.1429 H   0  0  0  0  0  0  0  0  0  0  0  0
   -9.8932  -13.2908   27.5260 H   0  0  0  0  0  0  0  0  0  0  0  0
  1  2  2  0
  2  3  1  0
  3  4  1  0
  4  5  1  0
  5  6  1  0
  6  7  2  0
  7  8  1  0
  8  9  2  0
  9 10  1  0
  2 11  1  0
 11 12  2  0
 12 13  1  0
 13 14  1  0
 14 15  2  0
 15 16  1  0
 16 17  2  0
 14 18  1  0
 18 19  1  0
 19 20  1  0
 20 21  1  0
 21 22  1  0
 22 23  1  0
 23 24  2  0
 24 25  1  0
 25 26  2  0
 26 27  1  0
 27 28  2  0
 22 29  1  0
 19 30  1  0
 10  6  1  0
 16 11  1  0
 29 19  1  0
 30 13  1  0
 28 23  1  0
  3 31  1  0
  4 32  1  0
  4 33  1  0
  5 34  1  0
  5 35  1  0
  7 36  1  0
  8 37  1  0
  9 38  1  0
 12 39  1  0
 18 40  1  0
 18 41  1  0
 20 42  1  0
 20 43  1  0
 21 44  1  0
 21 45  1  0
 25 46  1  0
 26 47  1  0
 27 48  1  0
 29 49  1  0
 29 50  1  0
 30 51  1  0
 30 52  1  0
M  END
>  <Energy>  (699) 
375.77806279872914

>  <compound_id>  (699) 
17476

>  <target_id>  (699) 
1

>  <reference_id>  (699) 
66

>  <inspiration_ids>  (699) 
[66, 54]

>  <energy_score>  (699) 
397.433587363172

>  <distance_score>  (699) 
14.651678442149366

>  <path>  (699) 
/opt/xchem-fragalysis-2/maxwin/BulkDock/SCRATCH/511014/C17476-P66/C17476-P66.minimised.mol

>  <scratch_subdir>  (699) 
/opt/xchem-fragalysis-2/maxwin/BulkDock/SCRATCH/511014/C17476-P66

>  <fragmenstein_runtime>  (699) 
44.47058868408203

>  <fragmenstein_outcome>  (699) 
too moved

>  <fragmenstein_mode>  (699) 
expansion

>  <fragmenstein_error>  (699) 


$$$$
C17476-P54
     RDKit          3D

 52 56  0  0  0  0  0  0  0  0999 V2000
   -4.1360  -13.2414   24.6068 O   0  0  0  0  0  0  0  0  0  0  0  0
   -4.3517  -13.6254   25.7228 C   0  0  0  0  0  0  0  0  0  0  0  0
   -3.4343  -13.8153   26.8699 N   0  0  0  0  0  0  0  0  0  0  0  0
   -1.9543  -13.6854   26.9624 C   0  0  0  0  0  0  0  0  0  0  0  0
   -1.0745  -13.2766   28.1985 C   0  0  0  0  0  0  0  0  0  0  0  0
    0.4848  -13.3975   28.0682 C   0  0  0  0  0  0  0  0  0  0  0  0
    1.3087  -14.1413   27.2333 C   0  0  0  0  0  0  0  0  0  0  0  0
    2.6751  -13.7200   27.2496 C   0  0  0  0  0  0  0  0  0  0  0  0
    2.9185  -12.7950   28.2328 C   0  0  0  0  0  0  0  0  0  0  0  0
    1.5202  -12.5435   29.1967 S   0  0  0  0  0  0  0  0  0  0  0  0
   -5.7975  -14.0872   25.9467 C   0  0  0  0  0  0  0  0  0  0  0  0
   -5.9733  -15.3114   26.4415 C   0  0  0  0  0  0  0  0  0  0  0  0
   -7.1984  -15.9301   26.5396 N   0  0  0  0  0  0  0  0  0  0  0  0
   -8.3038  -15.3400   26.0782 C   0  0  0  0  0  0  0  0  0  0  0  0
   -8.3128  -14.2101   25.4593 N   0  0  0  0  0  0  0  0  0  0  0  0
   -7.0679  -13.5445   25.2844 C   0  0  0  0  0  0  0  0  0  0  0  0
   -7.0151  -12.4808   24.6749 O   0  0  0  0  0  0  0  0  0  0  0  0
   -9.5496  -16.1314   26.7220 C   0  0  0  0  0  0  0  0  0  0  0  0
   -8.9819  -17.8131   27.6140 C   0  0  0  0  0  0  0  0  0  0  0  0
  -10.2792  -18.2968   29.1824 C   0  0  0  0  0  0  0  0  0  0  0  0
  -11.1251  -19.5704   29.4041 C   0  0  0  0  0  0  0  0  0  0  0  0
  -10.1773  -20.4398   28.9626 N   0  0  0  0  0  0  0  0  0  0  0  0
  -10.5612  -21.7573   28.7566 C   0  0  0  0  0  0  0  0  0  0  0  0
   -9.6213  -22.6234   28.3403 N   0  0  0  0  0  0  0  0  0  0  0  0
   -9.9540  -23.9241   28.2538 C   0  0  0  0  0  0  0  0  0  0  0  0
  -11.2073  -24.4042   28.5078 C   0  0  0  0  0  0  0  0  0  0  0  0
  -12.1109  -23.4524   28.8920 C   0  0  0  0  0  0  0  0  0  0  0  0
  -11.8164  -22.1468   29.0442 N   0  0  0  0  0  0  0  0  0  0  0  0
   -9.5485  -19.7085   27.8448 C   0  0  0  0  0  0  0  0  0  0  0  0
   -7.7409  -16.2857   27.8233 C   0  0  0  0  0  0  0  0  0  0  0  0
   -3.9441  -14.2334   27.6371 H   0  0  0  0  0  0  0  0  0  0  0  0
   -1.6201  -14.6807   26.6523 H   0  0  0  0  0  0  0  0  0  0  0  0
   -1.7468  -12.9655   26.1786 H   0  0  0  0  0  0  0  0  0  0  0  0
   -1.3299  -12.2454   28.4715 H   0  0  0  0  0  0  0  0  0  0  0  0
   -1.3730  -13.9081   29.0450 H   0  0  0  0  0  0  0  0  0  0  0  0
    0.9564  -14.9198   26.5719 H   0  0  0  0  0  0  0  0  0  0  0  0
    3.4332  -14.1146   26.5929 H   0  0  0  0  0  0  0  0  0  0  0  0
    3.8573  -12.3269   28.4919 H   0  0  0  0  0  0  0  0  0  0  0  0
   -5.1313  -15.9077   26.7710 H   0  0  0  0  0  0  0  0  0  0  0  0
  -10.1099  -16.0581   25.8091 H   0  0  0  0  0  0  0  0  0  0  0  0
  -10.1011  -15.4994   27.4340 H   0  0  0  0  0  0  0  0  0  0  0  0
  -10.0469  -18.1872   30.2424 H   0  0  0  0  0  0  0  0  0  0  0  0
  -11.1964  -17.8102   28.9400 H   0  0  0  0  0  0  0  0  0  0  0  0
  -11.4149  -19.7120   30.4528 H   0  0  0  0  0  0  0  0  0  0  0  0
  -12.0159  -19.5809   28.7897 H   0  0  0  0  0  0  0  0  0  0  0  0
   -9.1485  -24.5921   27.9699 H   0  0  0  0  0  0  0  0  0  0  0  0
  -11.4608  -25.4487   28.4149 H   0  0  0  0  0  0  0  0  0  0  0  0
  -13.1399  -23.7202   29.0972 H   0  0  0  0  0  0  0  0  0  0  0  0
  -10.3167  -19.9264   27.0801 H   0  0  0  0  0  0  0  0  0  0  0  0
   -8.5925  -20.2791   27.9571 H   0  0  0  0  0  0  0  0  0  0  0  0
   -8.2131  -15.3186   28.1069 H   0  0  0  0  0  0  0  0  0  0  0  0
   -7.0759  -16.1438   28.7104 H   0  0  0  0  0  0  0  0  0  0  0  0
  1  2  2  0
  2  3  1  0
  3  4  1  0
  4  5  1  0
  5  6  1  0
  6  7  2  0
  7  8  1  0
  8  9  2  0
  9 10  1  0
  2 11  1  0
 11 12  2  0
 12 13  1  0
 13 14  1  0
 14 15  2  0
 15 16  1  0
 16 17  2  0
 14 18  1  0
 18 19  1  0
 19 20  1  0
 20 21  1  0
 21 22  1  0
 22 23  1  0
 23 24  2  0
 24 25  1  0
 25 26  2  0
 26 27  1  0
 27 28  2  0
 22 29  1  0
 19 30  1  0
 10  6  1  0
 16 11  1  0
 29 19  1  0
 30 13  1  0
 28 23  1  0
  3 31  1  0
  4 32  1  0
  4 33  1  0
  5 34  1  0
  5 35  1  0
  7 36  1  0
  8 37  1  0
  9 38  1  0
 12 39  1  0
 18 40  1  0
 18 41  1  0
 20 42  1  0
 20 43  1  0
 21 44  1  0
 21 45  1  0
 25 46  1  0
 26 47  1  0
 27 48  1  0
 29 49  1  0
 29 50  1  0
 30 51  1  0
 30 52  1  0
M  END
>  <Energy>  (700) 
441.24975345161334

>  <compound_id>  (700) 
17476

>  <target_id>  (700) 
1

>  <reference_id>  (700) 
54

>  <inspiration_ids>  (700) 
[66, 54]

>  <energy_score>  (700) 
462.9052780160635

>  <distance_score>  (700) 
15.32359066424603

>  <path>  (700) 
/opt/xchem-fragalysis-2/maxwin/BulkDock/SCRATCH/511014/C17476-P54/C17476-P54.minimised.mol

>  <scratch_subdir>  (700) 
/opt/xchem-fragalysis-2/maxwin/BulkDock/SCRATCH/511014/C17476-P54

>  <fragmenstein_runtime>  (700) 
40.454411029815674

>  <fragmenstein_outcome>  (700) 
too moved

>  <fragmenstein_mode>  (700) 
expansion

>  <fragmenstein_error>  (700) 


$$$$
C17479-P66
     RDKit          3D

 47 48  0  0  0  0  0  0  0  0999 V2000
   -3.4961  -19.3804   25.0078 C   0  0  0  0  0  0  0  0  0  0  0  0
   -3.8438  -18.3539   23.9202 C   0  0  0  0  0  0  0  0  0  0  0  0
   -3.5394  -18.7609   22.5159 N   0  0  0  0  0  0  0  0  0  0  0  0
   -2.1386  -18.4991   21.9987 C   0  0  0  0  0  0  0  0  0  0  0  0
   -1.8125  -18.6446   20.4134 C   0  0  0  0  0  0  0  0  0  0  0  0
   -0.9567  -17.6379   19.5698 N   0  0  0  0  0  0  0  0  0  0  0  0
    0.4407  -17.7458   19.0341 C   0  0  0  0  0  0  0  0  0  0  0  0
    1.2744  -18.5999   19.1921 O   0  0  0  0  0  0  0  0  0  0  0  0
    0.8336  -16.5287   17.9625 C   0  0  0  0  0  0  0  0  0  0  0  0
    2.3855  -16.0516   17.5386 C   0  0  0  0  0  0  0  0  0  0  0  0
    2.7253  -14.5248   17.5996 C   0  0  0  0  0  0  0  0  0  0  0  0
    3.9641  -13.8807   16.9525 C   0  0  0  0  0  0  0  0  0  0  0  0
    5.1988  -13.6005   17.5254 C   0  0  0  0  0  0  0  0  0  0  0  0
    6.0322  -12.7563   16.7245 C   0  0  0  0  0  0  0  0  0  0  0  0
    5.4203  -12.4029   15.5438 C   0  0  0  0  0  0  0  0  0  0  0  0
    5.9354  -11.5260   14.4559 C   0  0  0  0  0  0  0  0  0  0  0  0
    3.8601  -13.1035   15.4182 S   0  0  0  0  0  0  0  0  0  0  0  0
   -4.2644  -19.9123   22.2263 C   0  0  0  0  0  0  0  0  0  0  0  0
   -5.6022  -19.7694   22.1049 N   0  0  0  0  0  0  0  0  0  0  0  0
   -6.3512  -20.8773   21.9274 C   0  0  0  0  0  0  0  0  0  0  0  0
   -5.8307  -22.1420   21.9337 C   0  0  0  0  0  0  0  0  0  0  0  0
   -4.4677  -22.1971   22.0902 C   0  0  0  0  0  0  0  0  0  0  0  0
   -3.6661  -21.1109   22.2144 N   0  0  0  0  0  0  0  0  0  0  0  0
   -3.7056  -18.9608   25.9968 H   0  0  0  0  0  0  0  0  0  0  0  0
   -4.0696  -20.3048   24.9083 H   0  0  0  0  0  0  0  0  0  0  0  0
   -2.4330  -19.6387   24.9642 H   0  0  0  0  0  0  0  0  0  0  0  0
   -4.9035  -18.0826   24.0029 H   0  0  0  0  0  0  0  0  0  0  0  0
   -3.2931  -17.4292   24.1339 H   0  0  0  0  0  0  0  0  0  0  0  0
   -1.9194  -17.4522   22.2322 H   0  0  0  0  0  0  0  0  0  0  0  0
   -1.4293  -19.1240   22.5532 H   0  0  0  0  0  0  0  0  0  0  0  0
   -2.7696  -18.6708   19.8806 H   0  0  0  0  0  0  0  0  0  0  0  0
   -1.3289  -19.6173   20.2685 H   0  0  0  0  0  0  0  0  0  0  0  0
   -1.4061  -16.8247   19.1665 H   0  0  0  0  0  0  0  0  0  0  0  0
    0.1751  -15.6743   18.1031 H   0  0  0  0  0  0  0  0  0  0  0  0
    0.4559  -16.9643   17.0224 H   0  0  0  0  0  0  0  0  0  0  0  0
    2.5313  -16.3827   16.5024 H   0  0  0  0  0  0  0  0  0  0  0  0
    3.0969  -16.6178   18.1477 H   0  0  0  0  0  0  0  0  0  0  0  0
    2.8478  -14.3758   18.6609 H   0  0  0  0  0  0  0  0  0  0  0  0
    1.8400  -13.9637   17.2784 H   0  0  0  0  0  0  0  0  0  0  0  0
    5.4676  -13.9415   18.5175 H   0  0  0  0  0  0  0  0  0  0  0  0
    7.0156  -12.4162   17.0215 H   0  0  0  0  0  0  0  0  0  0  0  0
    7.0053  -11.3335   14.5862 H   0  0  0  0  0  0  0  0  0  0  0  0
    5.8006  -11.9920   13.4743 H   0  0  0  0  0  0  0  0  0  0  0  0
    5.4151  -10.5627   14.4600 H   0  0  0  0  0  0  0  0  0  0  0  0
   -7.4154  -20.7055   21.7967 H   0  0  0  0  0  0  0  0  0  0  0  0
   -6.4458  -23.0226   21.8161 H   0  0  0  0  0  0  0  0  0  0  0  0
   -3.9475  -23.1506   22.1061 H   0  0  0  0  0  0  0  0  0  0  0  0
  1  2  1  0
  2  3  1  0
  3  4  1  0
  4  5  1  0
  5  6  1  0
  6  7  1  0
  7  8  2  0
  7  9  1  0
  9 10  1  0
 10 11  1  0
 11 12  1  0
 12 13  2  0
 13 14  1  0
 14 15  2  0
 15 16  1  0
 15 17  1  0
  3 18  1  0
 18 19  2  0
 19 20  1  0
 20 21  2  0
 21 22  1  0
 22 23  2  0
 17 12  1  0
 23 18  1  0
  1 24  1  0
  1 25  1  0
  1 26  1  0
  2 27  1  0
  2 28  1  0
  4 29  1  0
  4 30  1  0
  5 31  1  0
  5 32  1  0
  6 33  1  0
  9 34  1  0
  9 35  1  0
 10 36  1  0
 10 37  1  0
 11 38  1  0
 11 39  1  0
 13 40  1  0
 14 41  1  0
 16 42  1  0
 16 43  1  0
 16 44  1  0
 20 45  1  0
 21 46  1  0
 22 47  1  0
M  END
>  <Energy>  (701) 
-1.138477515982379

>  <compound_id>  (701) 
17479

>  <target_id>  (701) 
1

>  <reference_id>  (701) 
66

>  <inspiration_ids>  (701) 
[66, 54]

>  <energy_score>  (701) 
21.598554528053455

>  <distance_score>  (701) 
13.469514520595485

>  <path>  (701) 
/opt/xchem-fragalysis-2/maxwin/BulkDock/SCRATCH/511014/C17479-P66/C17479-P66.minimised.mol

>  <scratch_subdir>  (701) 
/opt/xchem-fragalysis-2/maxwin/BulkDock/SCRATCH/511014/C17479-P66

>  <fragmenstein_runtime>  (701) 
41.219706535339355

>  <fragmenstein_outcome>  (701) 
too moved

>  <fragmenstein_mode>  (701) 
expansion

>  <fragmenstein_error>  (701) 


$$$$
C17479-P54
     RDKit          3D

 47 48  0  0  0  0  0  0  0  0999 V2000
   -7.8861  -22.8900   29.8187 C   0  0  0  0  0  0  0  0  0  0  0  0
   -6.6336  -22.0167   29.1145 C   0  0  0  0  0  0  0  0  0  0  0  0
   -6.6235  -20.8316   27.9998 N   0  0  0  0  0  0  0  0  0  0  0  0
   -4.9163  -20.0712   27.3343 C   0  0  0  0  0  0  0  0  0  0  0  0
   -3.7474  -18.3960   27.1524 C   0  0  0  0  0  0  0  0  0  0  0  0
   -2.0019  -17.5531   27.0820 N   0  0  0  0  0  0  0  0  0  0  0  0
   -1.3785  -16.1494   26.0973 C   0  0  0  0  0  0  0  0  0  0  0  0
   -2.0544  -15.6241   25.2551 O   0  0  0  0  0  0  0  0  0  0  0  0
    0.4098  -15.1112   26.3144 C   0  0  0  0  0  0  0  0  0  0  0  0
    1.6506  -13.5163   25.8933 C   0  0  0  0  0  0  0  0  0  0  0  0
    3.2726  -12.4457   25.1026 C   0  0  0  0  0  0  0  0  0  0  0  0
    4.2937  -10.7944   24.6790 C   0  0  0  0  0  0  0  0  0  0  0  0
    4.8507   -9.5470   25.2114 C   0  0  0  0  0  0  0  0  0  0  0  0
    5.6327   -8.5349   24.5147 C   0  0  0  0  0  0  0  0  0  0  0  0
    6.1201   -8.9934   23.3434 C   0  0  0  0  0  0  0  0  0  0  0  0
    7.0769   -8.3350   22.4115 C   0  0  0  0  0  0  0  0  0  0  0  0
    5.5639  -10.5440   23.0239 S   0  0  0  0  0  0  0  0  0  0  0  0
   -8.2782  -21.2169   27.8729 C   0  0  0  0  0  0  0  0  0  0  0  0
   -9.3153  -20.3989   28.3200 N   0  0  0  0  0  0  0  0  0  0  0  0
  -10.6318  -20.7554   28.4174 C   0  0  0  0  0  0  0  0  0  0  0  0
  -11.1168  -21.9584   28.0243 C   0  0  0  0  0  0  0  0  0  0  0  0
  -10.1578  -22.7726   27.5304 C   0  0  0  0  0  0  0  0  0  0  0  0
   -8.8369  -22.4294   27.4856 N   0  0  0  0  0  0  0  0  0  0  0  0
   -8.9276  -22.5816   29.7475 H   0  0  0  0  0  0  0  0  0  0  0  0
   -7.8477  -23.9294   29.4732 H   0  0  0  0  0  0  0  0  0  0  0  0
   -7.7740  -22.8400   30.9068 H   0  0  0  0  0  0  0  0  0  0  0  0
   -6.0300  -21.7406   29.9217 H   0  0  0  0  0  0  0  0  0  0  0  0
   -6.0122  -22.7758   28.7789 H   0  0  0  0  0  0  0  0  0  0  0  0
   -5.5275  -19.3858   26.7964 H   0  0  0  0  0  0  0  0  0  0  0  0
   -4.5491  -20.8085   26.6153 H   0  0  0  0  0  0  0  0  0  0  0  0
   -4.1268  -17.7965   27.9873 H   0  0  0  0  0  0  0  0  0  0  0  0
   -4.1369  -17.9671   26.2184 H   0  0  0  0  0  0  0  0  0  0  0  0
   -1.2538  -17.8968   27.6701 H   0  0  0  0  0  0  0  0  0  0  0  0
    0.6721  -15.1227   27.3607 H   0  0  0  0  0  0  0  0  0  0  0  0
    1.0125  -15.5444   25.5448 H   0  0  0  0  0  0  0  0  0  0  0  0
    2.4345  -14.2778   25.9076 H   0  0  0  0  0  0  0  0  0  0  0  0
    1.3736  -13.2070   26.9086 H   0  0  0  0  0  0  0  0  0  0  0  0
    3.9266  -12.9851   25.7412 H   0  0  0  0  0  0  0  0  0  0  0  0
    3.5935  -12.8270   24.1124 H   0  0  0  0  0  0  0  0  0  0  0  0
    4.9481   -9.4021   26.2434 H   0  0  0  0  0  0  0  0  0  0  0  0
    5.9604   -7.6168   24.9876 H   0  0  0  0  0  0  0  0  0  0  0  0
    8.0029   -8.9139   22.3295 H   0  0  0  0  0  0  0  0  0  0  0  0
    6.6398   -8.2330   21.4127 H   0  0  0  0  0  0  0  0  0  0  0  0
    7.3395   -7.3317   22.7633 H   0  0  0  0  0  0  0  0  0  0  0  0
  -11.2678  -19.9841   28.8391 H   0  0  0  0  0  0  0  0  0  0  0  0
  -12.1499  -22.2404   28.0875 H   0  0  0  0  0  0  0  0  0  0  0  0
  -10.3852  -23.7659   27.1591 H   0  0  0  0  0  0  0  0  0  0  0  0
  1  2  1  0
  2  3  1  0
  3  4  1  0
  4  5  1  0
  5  6  1  0
  6  7  1  0
  7  8  2  0
  7  9  1  0
  9 10  1  0
 10 11  1  0
 11 12  1  0
 12 13  2  0
 13 14  1  0
 14 15  2  0
 15 16  1  0
 15 17  1  0
  3 18  1  0
 18 19  2  0
 19 20  1  0
 20 21  2  0
 21 22  1  0
 22 23  2  0
 17 12  1  0
 23 18  1  0
  1 24  1  0
  1 25  1  0
  1 26  1  0
  2 27  1  0
  2 28  1  0
  4 29  1  0
  4 30  1  0
  5 31  1  0
  5 32  1  0
  6 33  1  0
  9 34  1  0
  9 35  1  0
 10 36  1  0
 10 37  1  0
 11 38  1  0
 11 39  1  0
 13 40  1  0
 14 41  1  0
 16 42  1  0
 16 43  1  0
 16 44  1  0
 20 45  1  0
 21 46  1  0
 22 47  1  0
M  END
>  <Energy>  (702) 
951.39747800311056

>  <compound_id>  (702) 
17479

>  <target_id>  (702) 
1

>  <reference_id>  (702) 
54

>  <inspiration_ids>  (702) 
[66, 54]

>  <energy_score>  (702) 
974.1345100471475

>  <distance_score>  (702) 
11.042644720995787

>  <path>  (702) 
/opt/xchem-fragalysis-2/maxwin/BulkDock/SCRATCH/511014/C17479-P54/C17479-P54.minimised.mol

>  <scratch_subdir>  (702) 
/opt/xchem-fragalysis-2/maxwin/BulkDock/SCRATCH/511014/C17479-P54

>  <fragmenstein_runtime>  (702) 
34.29962778091431

>  <fragmenstein_outcome>  (702) 
too moved

>  <fragmenstein_mode>  (702) 
expansion

>  <fragmenstein_error>  (702) 


$$$$
C17483-P66
     RDKit          3D

 38 39  0  0  0  0  0  0  0  0999 V2000
    7.3320   -7.7188   19.8971 C   0  0  0  0  0  0  0  0  0  0  0  0
    7.2848   -9.9575   19.7356 C   0  0  0  0  0  0  0  0  0  0  0  0
    6.2674  -11.2213   19.4658 C   0  0  0  0  0  0  0  0  0  0  0  0
    5.3770  -12.5437   19.9618 C   0  0  0  0  0  0  0  0  0  0  0  0
    4.7806  -12.1790   21.0825 C   0  0  0  0  0  0  0  0  0  0  0  0
    3.4999  -12.7108   22.3265 C   0  0  0  0  0  0  0  0  0  0  0  0
    3.2551  -13.1635   24.0961 N   0  0  0  0  0  0  0  0  0  0  0  0
    3.9910  -14.3458   25.0436 C   0  0  0  0  0  0  0  0  0  0  0  0
    4.7936  -15.2176   24.7219 O   0  0  0  0  0  0  0  0  0  0  0  0
    3.7373  -14.3629   26.9209 C   0  0  0  0  0  0  0  0  0  0  0  0
    2.1982  -14.1928   27.8622 C   0  0  0  0  0  0  0  0  0  0  0  0
    1.5032  -15.3418   28.8117 C   0  0  0  0  0  0  0  0  0  0  0  0
    0.4912  -16.2206   28.2039 N   0  0  0  0  0  0  0  0  0  0  0  0
   -0.7679  -16.5816   28.6493 C   0  0  0  0  0  0  0  0  0  0  0  0
   -1.3418  -17.6018   27.9750 N   0  0  0  0  0  0  0  0  0  0  0  0
   -2.6255  -17.9237   28.2579 C   0  0  0  0  0  0  0  0  0  0  0  0
   -3.3634  -17.2906   29.2187 C   0  0  0  0  0  0  0  0  0  0  0  0
   -2.6860  -16.3050   29.8899 C   0  0  0  0  0  0  0  0  0  0  0  0
   -1.4081  -15.9300   29.6252 N   0  0  0  0  0  0  0  0  0  0  0  0
    6.0705  -11.2001   21.2880 S   0  0  0  0  0  0  0  0  0  0  0  0
    8.4064   -7.3315   20.1073 H   0  0  0  0  0  0  0  0  0  0  0  0
    6.8909   -7.3165   20.8133 H   0  0  0  0  0  0  0  0  0  0  0  0
    7.0140   -6.9709   19.1677 H   0  0  0  0  0  0  0  0  0  0  0  0
    6.1801  -11.6333   18.5501 H   0  0  0  0  0  0  0  0  0  0  0  0
    5.0138  -13.3313   19.3294 H   0  0  0  0  0  0  0  0  0  0  0  0
    3.2730  -13.5657   21.7075 H   0  0  0  0  0  0  0  0  0  0  0  0
    3.1784  -11.7619   22.6462 H   0  0  0  0  0  0  0  0  0  0  0  0
    2.5784  -12.6522   24.6539 H   0  0  0  0  0  0  0  0  0  0  0  0
    4.1201  -15.3621   27.2122 H   0  0  0  0  0  0  0  0  0  0  0  0
    4.5130  -13.7337   27.3817 H   0  0  0  0  0  0  0  0  0  0  0  0
    2.4644  -13.3985   28.5738 H   0  0  0  0  0  0  0  0  0  0  0  0
    1.4311  -13.7811   27.1935 H   0  0  0  0  0  0  0  0  0  0  0  0
    1.0392  -14.8012   29.6454 H   0  0  0  0  0  0  0  0  0  0  0  0
    2.3070  -15.9563   29.2315 H   0  0  0  0  0  0  0  0  0  0  0  0
    0.8642  -17.0230   27.7135 H   0  0  0  0  0  0  0  0  0  0  0  0
   -3.0438  -18.7227   27.6544 H   0  0  0  0  0  0  0  0  0  0  0  0
   -4.3935  -17.5275   29.4335 H   0  0  0  0  0  0  0  0  0  0  0  0
   -3.1669  -15.7414   30.6847 H   0  0  0  0  0  0  0  0  0  0  0  0
  1  2  1  0
  2  3  2  0
  3  4  1  0
  4  5  2  0
  5  6  1  0
  6  7  1  0
  7  8  1  0
  8  9  2  0
  8 10  1  0
 10 11  1  0
 11 12  1  0
 12 13  1  0
 13 14  1  0
 14 15  2  0
 15 16  1  0
 16 17  2  0
 17 18  1  0
 18 19  2  0
  5 20  1  0
 20  2  1  0
 19 14  1  0
  1 21  1  0
  1 22  1  0
  1 23  1  0
  3 24  1  0
  4 25  1  0
  6 26  1  0
  6 27  1  0
  7 28  1  0
 10 29  1  0
 10 30  1  0
 11 31  1  0
 11 32  1  0
 12 33  1  0
 12 34  1  0
 13 35  1  0
 16 36  1  0
 17 37  1  0
 18 38  1  0
M  END
>  <Energy>  (703) 
643.79109035290287

>  <compound_id>  (703) 
17483

>  <target_id>  (703) 
1

>  <reference_id>  (703) 
66

>  <inspiration_ids>  (703) 
[66, 54]

>  <energy_score>  (703) 
708.9385517195901

>  <distance_score>  (703) 
13.098331153700286

>  <path>  (703) 
/opt/xchem-fragalysis-2/maxwin/BulkDock/SCRATCH/511014/C17483-P66/C17483-P66.minimised.mol

>  <scratch_subdir>  (703) 
/opt/xchem-fragalysis-2/maxwin/BulkDock/SCRATCH/511014/C17483-P66

>  <fragmenstein_runtime>  (703) 
36.751508951187134

>  <fragmenstein_outcome>  (703) 
too moved

>  <fragmenstein_mode>  (703) 
expansion

>  <fragmenstein_error>  (703) 


$$$$
C17483-P54
     RDKit          3D

 38 39  0  0  0  0  0  0  0  0999 V2000
    5.7058  -18.3423   25.6322 C   0  0  0  0  0  0  0  0  0  0  0  0
    4.2852  -17.9517   25.3921 C   0  0  0  0  0  0  0  0  0  0  0  0
    3.5268  -18.0588   24.2452 C   0  0  0  0  0  0  0  0  0  0  0  0
    2.1486  -17.7659   24.4735 C   0  0  0  0  0  0  0  0  0  0  0  0
    1.8726  -17.4905   25.7975 C   0  0  0  0  0  0  0  0  0  0  0  0
    0.5603  -17.3244   26.5299 C   0  0  0  0  0  0  0  0  0  0  0  0
   -0.5352  -18.1552   26.0376 N   0  0  0  0  0  0  0  0  0  0  0  0
   -1.4497  -19.0390   26.7408 C   0  0  0  0  0  0  0  0  0  0  0  0
   -1.4856  -19.3710   27.8911 O   0  0  0  0  0  0  0  0  0  0  0  0
   -2.5853  -19.5020   25.7941 C   0  0  0  0  0  0  0  0  0  0  0  0
   -3.4947  -20.6705   26.2787 C   0  0  0  0  0  0  0  0  0  0  0  0
   -4.2886  -20.4497   27.5776 C   0  0  0  0  0  0  0  0  0  0  0  0
   -5.7595  -20.6923   27.4303 N   0  0  0  0  0  0  0  0  0  0  0  0
   -6.7795  -21.1965   28.2660 C   0  0  0  0  0  0  0  0  0  0  0  0
   -8.0198  -21.0499   27.8268 N   0  0  0  0  0  0  0  0  0  0  0  0
   -9.2024  -21.8290   28.1445 C   0  0  0  0  0  0  0  0  0  0  0  0
   -9.1970  -22.9078   28.9296 C   0  0  0  0  0  0  0  0  0  0  0  0
   -7.9382  -23.0513   29.4079 C   0  0  0  0  0  0  0  0  0  0  0  0
   -6.7483  -22.2193   29.1460 N   0  0  0  0  0  0  0  0  0  0  0  0
    3.3483  -17.3114   26.6768 S   0  0  0  0  0  0  0  0  0  0  0  0
    6.2246  -18.5991   24.7075 H   0  0  0  0  0  0  0  0  0  0  0  0
    5.7169  -19.2552   26.2414 H   0  0  0  0  0  0  0  0  0  0  0  0
    6.2697  -17.5964   26.1903 H   0  0  0  0  0  0  0  0  0  0  0  0
    3.8945  -18.4258   23.2952 H   0  0  0  0  0  0  0  0  0  0  0  0
    1.3827  -17.8844   23.7178 H   0  0  0  0  0  0  0  0  0  0  0  0
    0.2284  -16.2849   26.4374 H   0  0  0  0  0  0  0  0  0  0  0  0
    0.6755  -17.5444   27.5970 H   0  0  0  0  0  0  0  0  0  0  0  0
   -0.8549  -18.0388   25.0838 H   0  0  0  0  0  0  0  0  0  0  0  0
   -3.2148  -18.6275   25.5894 H   0  0  0  0  0  0  0  0  0  0  0  0
   -2.1260  -19.8121   24.8472 H   0  0  0  0  0  0  0  0  0  0  0  0
   -2.8479  -21.5462   26.4201 H   0  0  0  0  0  0  0  0  0  0  0  0
   -4.1664  -20.9221   25.4501 H   0  0  0  0  0  0  0  0  0  0  0  0
   -4.1331  -19.4084   27.8739 H   0  0  0  0  0  0  0  0  0  0  0  0
   -3.8229  -21.0817   28.3423 H   0  0  0  0  0  0  0  0  0  0  0  0
   -5.9301  -21.1942   26.5654 H   0  0  0  0  0  0  0  0  0  0  0  0
  -10.1331  -21.4586   27.7200 H   0  0  0  0  0  0  0  0  0  0  0  0
  -10.0390  -23.5287   29.1684 H   0  0  0  0  0  0  0  0  0  0  0  0
   -7.8036  -23.9347   29.9997 H   0  0  0  0  0  0  0  0  0  0  0  0
  1  2  1  0
  2  3  2  0
  3  4  1  0
  4  5  2  0
  5  6  1  0
  6  7  1  0
  7  8  1  0
  8  9  2  0
  8 10  1  0
 10 11  1  0
 11 12  1  0
 12 13  1  0
 13 14  1  0
 14 15  2  0
 15 16  1  0
 16 17  2  0
 17 18  1  0
 18 19  2  0
  5 20  1  0
 20  2  1  0
 19 14  1  0
  1 21  1  0
  1 22  1  0
  1 23  1  0
  3 24  1  0
  4 25  1  0
  6 26  1  0
  6 27  1  0
  7 28  1  0
 10 29  1  0
 10 30  1  0
 11 31  1  0
 11 32  1  0
 12 33  1  0
 12 34  1  0
 13 35  1  0
 16 36  1  0
 17 37  1  0
 18 38  1  0
M  END
>  <Energy>  (704) 
-45.376217866592754

>  <compound_id>  (704) 
17483

>  <target_id>  (704) 
1

>  <reference_id>  (704) 
54

>  <inspiration_ids>  (704) 
[66, 54]

>  <energy_score>  (704) 
19.771243500119056

>  <distance_score>  (704) 
14.630599990131863

>  <path>  (704) 
/opt/xchem-fragalysis-2/maxwin/BulkDock/SCRATCH/511014/C17483-P54/C17483-P54.minimised.mol

>  <scratch_subdir>  (704) 
/opt/xchem-fragalysis-2/maxwin/BulkDock/SCRATCH/511014/C17483-P54

>  <fragmenstein_runtime>  (704) 
24.953649520874023

>  <fragmenstein_outcome>  (704) 
too moved

>  <fragmenstein_mode>  (704) 
expansion

>  <fragmenstein_error>  (704) 


$$$$
C17484-P66
     RDKit          3D

 44 45  0  0  0  0  0  0  0  0999 V2000
   -5.1511  -12.7917   23.5416 C   0  0  0  0  0  0  0  0  0  0  0  0
   -4.6216  -12.2529   22.1813 C   0  0  0  0  0  0  0  0  0  0  0  0
   -3.2994  -12.8080   21.7609 N   0  0  0  0  0  0  0  0  0  0  0  0
   -2.5553  -12.1574   20.5000 C   0  0  0  0  0  0  0  0  0  0  0  0
   -1.8922  -10.4802   20.4825 C   0  0  0  0  0  0  0  0  0  0  0  0
   -0.3813   -9.9090   20.0421 N   0  0  0  0  0  0  0  0  0  0  0  0
    0.0359   -8.6006   19.2895 C   0  0  0  0  0  0  0  0  0  0  0  0
   -0.6467   -7.7390   18.7801 O   0  0  0  0  0  0  0  0  0  0  0  0
    1.7702   -8.2467   19.2730 C   0  0  0  0  0  0  0  0  0  0  0  0
    2.7113   -6.9666   18.5380 C   0  0  0  0  0  0  0  0  0  0  0  0
    4.3323   -6.6020   18.9723 C   0  0  0  0  0  0  0  0  0  0  0  0
    4.8078   -6.1015   20.1736 C   0  0  0  0  0  0  0  0  0  0  0  0
    6.2596   -6.0439   20.3224 C   0  0  0  0  0  0  0  0  0  0  0  0
    7.1497   -6.4991   19.2500 C   0  0  0  0  0  0  0  0  0  0  0  0
    9.2548   -6.2708   19.0730 C   0  0  0  0  0  0  0  0  0  0  0  0
    5.7058   -6.2191   17.8581 S   0  0  0  0  0  0  0  0  0  0  0  0
   -3.5316  -14.2276   21.7203 C   0  0  0  0  0  0  0  0  0  0  0  0
   -4.4765  -14.7379   20.9072 N   0  0  0  0  0  0  0  0  0  0  0  0
   -4.9535  -15.9811   21.1849 C   0  0  0  0  0  0  0  0  0  0  0  0
   -4.5449  -16.7485   22.2459 C   0  0  0  0  0  0  0  0  0  0  0  0
   -3.5699  -16.1683   23.0118 C   0  0  0  0  0  0  0  0  0  0  0  0
   -3.0648  -14.9305   22.7759 N   0  0  0  0  0  0  0  0  0  0  0  0
   -5.9811  -12.1618   23.8786 H   0  0  0  0  0  0  0  0  0  0  0  0
   -5.5376  -13.8108   23.4590 H   0  0  0  0  0  0  0  0  0  0  0  0
   -4.3727  -12.7688   24.3098 H   0  0  0  0  0  0  0  0  0  0  0  0
   -5.3794  -12.3903   21.3988 H   0  0  0  0  0  0  0  0  0  0  0  0
   -4.4978  -11.1680   22.2849 H   0  0  0  0  0  0  0  0  0  0  0  0
   -1.7360  -12.8201   20.2184 H   0  0  0  0  0  0  0  0  0  0  0  0
   -3.2811  -12.1702   19.6771 H   0  0  0  0  0  0  0  0  0  0  0  0
   -2.0202  -10.0797   21.4901 H   0  0  0  0  0  0  0  0  0  0  0  0
   -2.5661   -9.9195   19.8241 H   0  0  0  0  0  0  0  0  0  0  0  0
    0.4518  -10.3644   20.4166 H   0  0  0  0  0  0  0  0  0  0  0  0
    1.9464   -8.1155   20.3429 H   0  0  0  0  0  0  0  0  0  0  0  0
    2.2027   -9.1484   18.8341 H   0  0  0  0  0  0  0  0  0  0  0  0
    2.1537   -6.0377   18.7092 H   0  0  0  0  0  0  0  0  0  0  0  0
    2.7261   -7.1672   17.4601 H   0  0  0  0  0  0  0  0  0  0  0  0
    4.1368   -5.8832   20.9975 H   0  0  0  0  0  0  0  0  0  0  0  0
    6.6320   -5.7023   21.2801 H   0  0  0  0  0  0  0  0  0  0  0  0
    9.3945   -7.5867   19.6619 H   0  0  0  0  0  0  0  0  0  0  0  0
    9.9819   -5.7180   19.9138 H   0  0  0  0  0  0  0  0  0  0  0  0
    9.9807   -5.8916   18.3582 H   0  0  0  0  0  0  0  0  0  0  0  0
   -5.7099  -16.3417   20.4932 H   0  0  0  0  0  0  0  0  0  0  0  0
   -4.9407  -17.7324   22.4472 H   0  0  0  0  0  0  0  0  0  0  0  0
   -3.1466  -16.6771   23.8731 H   0  0  0  0  0  0  0  0  0  0  0  0
  1  2  1  0
  2  3  1  0
  3  4  1  0
  4  5  1  0
  5  6  1  0
  6  7  1  0
  7  8  2  0
  7  9  1  0
  9 10  1  0
 10 11  1  0
 11 12  2  0
 12 13  1  0
 13 14  2  0
 14 15  1  0
 14 16  1  0
  3 17  1  0
 17 18  2  0
 18 19  1  0
 19 20  2  0
 20 21  1  0
 21 22  2  0
 16 11  1  0
 22 17  1  0
  1 23  1  0
  1 24  1  0
  1 25  1  0
  2 26  1  0
  2 27  1  0
  4 28  1  0
  4 29  1  0
  5 30  1  0
  5 31  1  0
  6 32  1  0
  9 33  1  0
  9 34  1  0
 10 35  1  0
 10 36  1  0
 12 37  1  0
 13 38  1  0
 15 39  1  0
 15 40  1  0
 15 41  1  0
 19 42  1  0
 20 43  1  0
 21 44  1  0
M  END
>  <Energy>  (705) 
281.35041840792974

>  <compound_id>  (705) 
17484

>  <target_id>  (705) 
1

>  <reference_id>  (705) 
66

>  <inspiration_ids>  (705) 
[66, 54]

>  <energy_score>  (705) 
303.13665461610447

>  <distance_score>  (705) 
13.717585350111857

>  <path>  (705) 
/opt/xchem-fragalysis-2/maxwin/BulkDock/SCRATCH/511014/C17484-P66/C17484-P66.minimised.mol

>  <scratch_subdir>  (705) 
/opt/xchem-fragalysis-2/maxwin/BulkDock/SCRATCH/511014/C17484-P66

>  <fragmenstein_runtime>  (705) 
47.968385457992554

>  <fragmenstein_outcome>  (705) 
too moved

>  <fragmenstein_mode>  (705) 
expansion

>  <fragmenstein_error>  (705) 


$$$$
C17484-P54
     RDKit          3D

 44 45  0  0  0  0  0  0  0  0999 V2000
   -2.5139  -20.2889   27.0702 C   0  0  0  0  0  0  0  0  0  0  0  0
   -3.1370  -19.1916   26.2139 C   0  0  0  0  0  0  0  0  0  0  0  0
   -2.7905  -19.2005   24.7761 N   0  0  0  0  0  0  0  0  0  0  0  0
   -1.4067  -18.8162   24.3229 C   0  0  0  0  0  0  0  0  0  0  0  0
   -1.2106  -18.1407   22.8720 C   0  0  0  0  0  0  0  0  0  0  0  0
    0.1486  -17.5784   22.4300 N   0  0  0  0  0  0  0  0  0  0  0  0
    0.5599  -16.9133   21.1669 C   0  0  0  0  0  0  0  0  0  0  0  0
   -0.0518  -16.7232   20.1481 O   0  0  0  0  0  0  0  0  0  0  0  0
    2.0857  -16.3415   21.1607 C   0  0  0  0  0  0  0  0  0  0  0  0
    2.2916  -15.0715   20.1943 C   0  0  0  0  0  0  0  0  0  0  0  0
    3.5592  -14.1807   20.1875 C   0  0  0  0  0  0  0  0  0  0  0  0
    3.6020  -12.7865   20.2148 C   0  0  0  0  0  0  0  0  0  0  0  0
    4.9083  -12.2404   20.0134 C   0  0  0  0  0  0  0  0  0  0  0  0
    5.8481  -13.2308   19.8406 C   0  0  0  0  0  0  0  0  0  0  0  0
    7.3136  -13.0963   19.6127 C   0  0  0  0  0  0  0  0  0  0  0  0
    5.1367  -14.7946   19.9185 S   0  0  0  0  0  0  0  0  0  0  0  0
   -3.4637  -20.1508   24.0165 C   0  0  0  0  0  0  0  0  0  0  0  0
   -3.7260  -19.8437   22.7399 N   0  0  0  0  0  0  0  0  0  0  0  0
   -4.4423  -20.7213   22.0057 C   0  0  0  0  0  0  0  0  0  0  0  0
   -4.8880  -21.9232   22.4789 C   0  0  0  0  0  0  0  0  0  0  0  0
   -4.5697  -22.1600   23.7866 C   0  0  0  0  0  0  0  0  0  0  0  0
   -3.8967  -21.2931   24.5745 N   0  0  0  0  0  0  0  0  0  0  0  0
   -2.8470  -21.2893   26.7890 H   0  0  0  0  0  0  0  0  0  0  0  0
   -2.7765  -20.1364   28.1221 H   0  0  0  0  0  0  0  0  0  0  0  0
   -1.4223  -20.2679   26.9880 H   0  0  0  0  0  0  0  0  0  0  0  0
   -4.2268  -19.2109   26.3354 H   0  0  0  0  0  0  0  0  0  0  0  0
   -2.8207  -18.2234   26.6222 H   0  0  0  0  0  0  0  0  0  0  0  0
   -1.0149  -18.0932   25.0455 H   0  0  0  0  0  0  0  0  0  0  0  0
   -0.7541  -19.6963   24.3806 H   0  0  0  0  0  0  0  0  0  0  0  0
   -1.4718  -18.8637   22.0933 H   0  0  0  0  0  0  0  0  0  0  0  0
   -1.9127  -17.3045   22.7788 H   0  0  0  0  0  0  0  0  0  0  0  0
    0.8916  -17.4867   23.1103 H   0  0  0  0  0  0  0  0  0  0  0  0
    2.4070  -16.1383   22.1810 H   0  0  0  0  0  0  0  0  0  0  0  0
    2.7172  -17.1583   20.7906 H   0  0  0  0  0  0  0  0  0  0  0  0
    2.1608  -15.4335   19.1647 H   0  0  0  0  0  0  0  0  0  0  0  0
    1.4377  -14.4029   20.3697 H   0  0  0  0  0  0  0  0  0  0  0  0
    2.7110  -12.1829   20.3496 H   0  0  0  0  0  0  0  0  0  0  0  0
    5.1346  -11.1824   19.9981 H   0  0  0  0  0  0  0  0  0  0  0  0
    7.6058  -13.5674   18.6685 H   0  0  0  0  0  0  0  0  0  0  0  0
    7.8769  -13.5639   20.4269 H   0  0  0  0  0  0  0  0  0  0  0  0
    7.6063  -12.0420   19.5646 H   0  0  0  0  0  0  0  0  0  0  0  0
   -4.6396  -20.4109   20.9837 H   0  0  0  0  0  0  0  0  0  0  0  0
   -5.4551  -22.6178   21.8776 H   0  0  0  0  0  0  0  0  0  0  0  0
   -4.8880  -23.0736   24.2583 H   0  0  0  0  0  0  0  0  0  0  0  0
  1  2  1  0
  2  3  1  0
  3  4  1  0
  4  5  1  0
  5  6  1  0
  6  7  1  0
  7  8  2  0
  7  9  1  0
  9 10  1  0
 10 11  1  0
 11 12  2  0
 12 13  1  0
 13 14  2  0
 14 15  1  0
 14 16  1  0
  3 17  1  0
 17 18  2  0
 18 19  1  0
 19 20  2  0
 20 21  1  0
 21 22  2  0
 16 11  1  0
 22 17  1  0
  1 23  1  0
  1 24  1  0
  1 25  1  0
  2 26  1  0
  2 27  1  0
  4 28  1  0
  4 29  1  0
  5 30  1  0
  5 31  1  0
  6 32  1  0
  9 33  1  0
  9 34  1  0
 10 35  1  0
 10 36  1  0
 12 37  1  0
 13 38  1  0
 15 39  1  0
 15 40  1  0
 15 41  1  0
 19 42  1  0
 20 43  1  0
 21 44  1  0
M  END
>  <Energy>  (706) 
-30.623917186402526

>  <compound_id>  (706) 
17484

>  <target_id>  (706) 
1

>  <reference_id>  (706) 
54

>  <inspiration_ids>  (706) 
[66, 54]

>  <energy_score>  (706) 
-8.837680978217179

>  <distance_score>  (706) 
13.523001983639706

>  <path>  (706) 
/opt/xchem-fragalysis-2/maxwin/BulkDock/SCRATCH/511014/C17484-P54/C17484-P54.minimised.mol

>  <scratch_subdir>  (706) 
/opt/xchem-fragalysis-2/maxwin/BulkDock/SCRATCH/511014/C17484-P54

>  <fragmenstein_runtime>  (706) 
44.22514462471008

>  <fragmenstein_outcome>  (706) 
too moved

>  <fragmenstein_mode>  (706) 
expansion

>  <fragmenstein_error>  (706) 


$$$$
C17487-P66
     RDKit          3D

 42 43  0  0  0  0  0  0  0  0999 V2000
    4.1284  -13.1674   15.1171 C   0  0  0  0  0  0  0  0  0  0  0  0
    4.5239  -12.8779   16.5230 C   0  0  0  0  0  0  0  0  0  0  0  0
    5.4829  -12.0131   16.9802 C   0  0  0  0  0  0  0  0  0  0  0  0
    5.5487  -12.0315   18.3970 C   0  0  0  0  0  0  0  0  0  0  0  0
    4.5707  -12.8359   19.0514 C   0  0  0  0  0  0  0  0  0  0  0  0
    4.7257  -13.1831   20.6328 C   0  0  0  0  0  0  0  0  0  0  0  0
    5.8662  -12.9351   20.9933 O   0  0  0  0  0  0  0  0  0  0  0  0
    3.3990  -13.9745   21.6004 N   0  0  0  0  0  0  0  0  0  0  0  0
    3.4163  -14.7961   23.4041 C   0  0  0  0  0  0  0  0  0  0  0  0
    3.7163  -16.7465   23.7679 C   0  0  0  0  0  0  0  0  0  0  0  0
    4.3017  -17.1896   22.9334 O   0  0  0  0  0  0  0  0  0  0  0  0
    3.0801  -17.8638   25.0753 N   0  0  0  0  0  0  0  0  0  0  0  0
    3.1053  -19.3782   25.2040 C   0  0  0  0  0  0  0  0  0  0  0  0
    1.7910  -19.9968   26.1596 C   0  0  0  0  0  0  0  0  0  0  0  0
    0.3765  -19.9496   25.6394 N   0  0  0  0  0  0  0  0  0  0  0  0
    0.1452  -20.7290   24.4211 C   0  0  0  0  0  0  0  0  0  0  0  0
   -0.7127  -20.3091   26.4772 C   0  0  0  0  0  0  0  0  0  0  0  0
   -1.9592  -20.0281   26.0197 N   0  0  0  0  0  0  0  0  0  0  0  0
   -3.0276  -20.5654   26.6410 C   0  0  0  0  0  0  0  0  0  0  0  0
   -2.9164  -21.3917   27.7222 C   0  0  0  0  0  0  0  0  0  0  0  0
   -1.6312  -21.5816   28.1666 C   0  0  0  0  0  0  0  0  0  0  0  0
   -0.5277  -21.0540   27.5795 N   0  0  0  0  0  0  0  0  0  0  0  0
    3.8423  -13.7910   17.7990 S   0  0  0  0  0  0  0  0  0  0  0  0
    3.0435  -13.0871   14.9920 H   0  0  0  0  0  0  0  0  0  0  0  0
    4.4406  -14.1759   14.8262 H   0  0  0  0  0  0  0  0  0  0  0  0
    4.5962  -12.4583   14.4259 H   0  0  0  0  0  0  0  0  0  0  0  0
    6.1330  -11.4455   16.3316 H   0  0  0  0  0  0  0  0  0  0  0  0
    6.2865  -11.4707   18.9636 H   0  0  0  0  0  0  0  0  0  0  0  0
    2.6010  -14.1229   21.0208 H   0  0  0  0  0  0  0  0  0  0  0  0
    3.7393  -14.1765   24.2352 H   0  0  0  0  0  0  0  0  0  0  0  0
    2.3651  -14.6436   23.4031 H   0  0  0  0  0  0  0  0  0  0  0  0
    2.6620  -17.3262   25.7833 H   0  0  0  0  0  0  0  0  0  0  0  0
    3.1084  -19.8596   24.2249 H   0  0  0  0  0  0  0  0  0  0  0  0
    3.9927  -19.6871   25.7558 H   0  0  0  0  0  0  0  0  0  0  0  0
    1.8329  -19.4346   27.1007 H   0  0  0  0  0  0  0  0  0  0  0  0
    2.0543  -21.0414   26.3692 H   0  0  0  0  0  0  0  0  0  0  0  0
    1.0350  -20.7450   23.7860 H   0  0  0  0  0  0  0  0  0  0  0  0
   -0.6616  -20.2960   23.8177 H   0  0  0  0  0  0  0  0  0  0  0  0
   -0.0846  -21.7828   24.6312 H   0  0  0  0  0  0  0  0  0  0  0  0
   -3.9904  -20.3102   26.2096 H   0  0  0  0  0  0  0  0  0  0  0  0
   -3.7696  -21.8496   28.1914 H   0  0  0  0  0  0  0  0  0  0  0  0
   -1.4262  -22.1993   29.0363 H   0  0  0  0  0  0  0  0  0  0  0  0
  1  2  1  0
  2  3  2  0
  3  4  1  0
  4  5  2  0
  5  6  1  0
  6  7  2  0
  6  8  1  0
  8  9  1  0
  9 10  1  0
 10 11  2  0
 10 12  1  0
 12 13  1  0
 13 14  1  0
 14 15  1  0
 15 16  1  0
 15 17  1  0
 17 18  2  0
 18 19  1  0
 19 20  2  0
 20 21  1  0
 21 22  2  0
  5 23  1  0
 23  2  1  0
 22 17  1  0
  1 24  1  0
  1 25  1  0
  1 26  1  0
  3 27  1  0
  4 28  1  0
  8 29  1  0
  9 30  1  0
  9 31  1  0
 12 32  1  0
 13 33  1  0
 13 34  1  0
 14 35  1  0
 14 36  1  0
 16 37  1  0
 16 38  1  0
 16 39  1  0
 19 40  1  0
 20 41  1  0
 21 42  1  0
M  END
>  <Energy>  (707) 
281.17318547179053

>  <compound_id>  (707) 
17487

>  <target_id>  (707) 
1

>  <reference_id>  (707) 
66

>  <inspiration_ids>  (707) 
[66, 54]

>  <energy_score>  (707) 
289.086556807353

>  <distance_score>  (707) 
13.359068753077176

>  <path>  (707) 
/opt/xchem-fragalysis-2/maxwin/BulkDock/SCRATCH/511014/C17487-P66/C17487-P66.minimised.mol

>  <scratch_subdir>  (707) 
/opt/xchem-fragalysis-2/maxwin/BulkDock/SCRATCH/511014/C17487-P66

>  <fragmenstein_runtime>  (707) 
39.722097635269165

>  <fragmenstein_outcome>  (707) 
too moved

>  <fragmenstein_mode>  (707) 
expansion

>  <fragmenstein_error>  (707) 


$$$$
C17487-P54
     RDKit          3D

 42 43  0  0  0  0  0  0  0  0999 V2000
    6.7686   -8.5374   23.8082 C   0  0  0  0  0  0  0  0  0  0  0  0
    5.7080   -9.5836   23.8152 C   0  0  0  0  0  0  0  0  0  0  0  0
    5.4110  -10.5067   22.8698 C   0  0  0  0  0  0  0  0  0  0  0  0
    4.1985  -11.5794   23.1625 C   0  0  0  0  0  0  0  0  0  0  0  0
    3.5469  -11.4270   24.4074 C   0  0  0  0  0  0  0  0  0  0  0  0
    1.9526  -11.9531   24.9653 C   0  0  0  0  0  0  0  0  0  0  0  0
    2.0824  -12.8362   25.8079 O   0  0  0  0  0  0  0  0  0  0  0  0
    0.3086  -11.4188   24.3192 N   0  0  0  0  0  0  0  0  0  0  0  0
   -1.5723  -11.9665   24.8488 C   0  0  0  0  0  0  0  0  0  0  0  0
   -2.2704  -13.3580   26.1278 C   0  0  0  0  0  0  0  0  0  0  0  0
   -1.9131  -13.0943   27.2574 O   0  0  0  0  0  0  0  0  0  0  0  0
   -3.1481  -14.8110   25.6563 N   0  0  0  0  0  0  0  0  0  0  0  0
   -3.6403  -16.3325   26.6483 C   0  0  0  0  0  0  0  0  0  0  0  0
   -4.8917  -17.8360   26.4560 C   0  0  0  0  0  0  0  0  0  0  0  0
   -5.0439  -19.4901   27.3183 N   0  0  0  0  0  0  0  0  0  0  0  0
   -3.8318  -20.2849   27.1722 C   0  0  0  0  0  0  0  0  0  0  0  0
   -6.2320  -20.6948   27.6921 C   0  0  0  0  0  0  0  0  0  0  0  0
   -7.5193  -20.5937   27.5188 N   0  0  0  0  0  0  0  0  0  0  0  0
   -8.7305  -21.6078   28.0019 C   0  0  0  0  0  0  0  0  0  0  0  0
   -8.7017  -22.7073   28.7772 C   0  0  0  0  0  0  0  0  0  0  0  0
   -7.4367  -22.6012   29.2447 C   0  0  0  0  0  0  0  0  0  0  0  0
   -6.2173  -21.7070   28.7032 N   0  0  0  0  0  0  0  0  0  0  0  0
    4.6164   -9.6708   25.0922 S   0  0  0  0  0  0  0  0  0  0  0  0
    7.3750   -8.5869   24.7187 H   0  0  0  0  0  0  0  0  0  0  0  0
    6.3254   -7.5386   23.7366 H   0  0  0  0  0  0  0  0  0  0  0  0
    7.4415   -8.6679   22.9540 H   0  0  0  0  0  0  0  0  0  0  0  0
    5.9899  -10.4542   21.9555 H   0  0  0  0  0  0  0  0  0  0  0  0
    3.8881  -12.4346   22.5697 H   0  0  0  0  0  0  0  0  0  0  0  0
    0.4432  -10.6228   23.7010 H   0  0  0  0  0  0  0  0  0  0  0  0
   -2.0613  -12.2708   23.8834 H   0  0  0  0  0  0  0  0  0  0  0  0
   -2.1926  -11.0572   24.8714 H   0  0  0  0  0  0  0  0  0  0  0  0
   -3.3954  -14.7463   24.6769 H   0  0  0  0  0  0  0  0  0  0  0  0
   -3.8761  -15.8957   27.6250 H   0  0  0  0  0  0  0  0  0  0  0  0
   -2.6676  -16.8334   26.7212 H   0  0  0  0  0  0  0  0  0  0  0  0
   -4.7144  -18.1467   25.4229 H   0  0  0  0  0  0  0  0  0  0  0  0
   -5.8869  -17.3948   26.5649 H   0  0  0  0  0  0  0  0  0  0  0  0
   -2.9795  -19.6189   27.0010 H   0  0  0  0  0  0  0  0  0  0  0  0
   -3.5913  -20.8621   28.0686 H   0  0  0  0  0  0  0  0  0  0  0  0
   -3.9033  -20.9459   26.3032 H   0  0  0  0  0  0  0  0  0  0  0  0
   -9.7352  -21.1843   27.8397 H   0  0  0  0  0  0  0  0  0  0  0  0
   -9.5350  -23.2138   29.2204 H   0  0  0  0  0  0  0  0  0  0  0  0
   -7.3853  -22.8633   30.2909 H   0  0  0  0  0  0  0  0  0  0  0  0
  1  2  1  0
  2  3  2  0
  3  4  1  0
  4  5  2  0
  5  6  1  0
  6  7  2  0
  6  8  1  0
  8  9  1  0
  9 10  1  0
 10 11  2  0
 10 12  1  0
 12 13  1  0
 13 14  1  0
 14 15  1  0
 15 16  1  0
 15 17  1  0
 17 18  2  0
 18 19  1  0
 19 20  2  0
 20 21  1  0
 21 22  2  0
  5 23  1  0
 23  2  1  0
 22 17  1  0
  1 24  1  0
  1 25  1  0
  1 26  1  0
  3 27  1  0
  4 28  1  0
  8 29  1  0
  9 30  1  0
  9 31  1  0
 12 32  1  0
 13 33  1  0
 13 34  1  0
 14 35  1  0
 14 36  1  0
 16 37  1  0
 16 38  1  0
 16 39  1  0
 19 40  1  0
 20 41  1  0
 21 42  1  0
M  END
>  <Energy>  (708) 
623.34992439338282

>  <compound_id>  (708) 
17487

>  <target_id>  (708) 
1

>  <reference_id>  (708) 
54

>  <inspiration_ids>  (708) 
[66, 54]

>  <energy_score>  (708) 
631.2632957289504

>  <distance_score>  (708) 
12.183176347529892

>  <path>  (708) 
/opt/xchem-fragalysis-2/maxwin/BulkDock/SCRATCH/511014/C17487-P54/C17487-P54.minimised.mol

>  <scratch_subdir>  (708) 
/opt/xchem-fragalysis-2/maxwin/BulkDock/SCRATCH/511014/C17487-P54

>  <fragmenstein_runtime>  (708) 
28.79766035079956

>  <fragmenstein_outcome>  (708) 
too moved

>  <fragmenstein_mode>  (708) 
expansion

>  <fragmenstein_error>  (708) 


$$$$
C17491-P66
     RDKit          3D

 43 46  0  0  0  0  0  0  0  0999 V2000
   -4.6601  -13.9294   11.6364 O   0  0  0  0  0  0  0  0  0  0  0  0
   -3.6395  -14.4978   12.0113 C   0  0  0  0  0  0  0  0  0  0  0  0
   -2.3123  -13.7645   11.8959 C   0  0  0  0  0  0  0  0  0  0  0  0
   -0.9849  -14.0234   12.2286 C   0  0  0  0  0  0  0  0  0  0  0  0
   -0.0609  -12.9351   12.0228 C   0  0  0  0  0  0  0  0  0  0  0  0
   -0.6701  -11.8571   11.4407 C   0  0  0  0  0  0  0  0  0  0  0  0
   -2.3154  -12.1832   11.1033 S   0  0  0  0  0  0  0  0  0  0  0  0
   -3.6994  -15.8623   12.4409 N   0  0  0  0  0  0  0  0  0  0  0  0
   -3.9940  -15.8397   14.2342 C   0  0  0  0  0  0  0  0  0  0  0  0
   -5.5251  -15.7240   15.0682 C   0  0  0  0  0  0  0  0  0  0  0  0
   -6.1958  -17.0907   15.0046 C   0  0  0  0  0  0  0  0  0  0  0  0
   -5.4307  -17.5707   13.7777 C   0  0  0  0  0  0  0  0  0  0  0  0
   -3.9338  -16.6162   13.7544 C   0  0  0  0  0  0  0  0  0  0  0  0
   -6.0734  -18.0184   16.3121 C   0  0  0  0  0  0  0  0  0  0  0  0
   -7.3603  -18.4020   17.0073 N   0  0  0  0  0  0  0  0  0  0  0  0
   -7.3793  -18.9082   18.3932 C   0  0  0  0  0  0  0  0  0  0  0  0
   -6.2429  -19.2344   19.1152 C   0  0  0  0  0  0  0  0  0  0  0  0
   -6.2194  -19.7201   20.3881 N   0  0  0  0  0  0  0  0  0  0  0  0
   -7.4048  -19.8663   20.9937 C   0  0  0  0  0  0  0  0  0  0  0  0
   -8.5822  -19.5783   20.4382 N   0  0  0  0  0  0  0  0  0  0  0  0
   -8.5348  -19.1192   19.1537 C   0  0  0  0  0  0  0  0  0  0  0  0
   -8.5156  -18.5144   16.2087 C   0  0  0  0  0  0  0  0  0  0  0  0
   -9.5890  -19.0000   16.5601 O   0  0  0  0  0  0  0  0  0  0  0  0
   -8.3445  -18.0382   14.7690 C   0  0  0  0  0  0  0  0  0  0  0  0
   -7.5625  -16.8630   14.6714 O   0  0  0  0  0  0  0  0  0  0  0  0
   -0.6459  -14.9489   12.6419 H   0  0  0  0  0  0  0  0  0  0  0  0
    0.9895  -12.9634   12.2821 H   0  0  0  0  0  0  0  0  0  0  0  0
   -0.2306  -10.9107   11.1577 H   0  0  0  0  0  0  0  0  0  0  0  0
   -3.0608  -15.5463   14.9345 H   0  0  0  0  0  0  0  0  0  0  0  0
   -4.0653  -14.6948   14.1704 H   0  0  0  0  0  0  0  0  0  0  0  0
   -6.1226  -14.9438   14.5771 H   0  0  0  0  0  0  0  0  0  0  0  0
   -5.3110  -15.4141   16.0960 H   0  0  0  0  0  0  0  0  0  0  0  0
   -5.1662  -18.6331   13.8342 H   0  0  0  0  0  0  0  0  0  0  0  0
   -5.9616  -17.3813   12.8356 H   0  0  0  0  0  0  0  0  0  0  0  0
   -3.1190  -17.3534   14.3171 H   0  0  0  0  0  0  0  0  0  0  0  0
   -3.6148  -17.4631   13.0148 H   0  0  0  0  0  0  0  0  0  0  0  0
   -5.4079  -17.5358   17.0338 H   0  0  0  0  0  0  0  0  0  0  0  0
   -5.6039  -18.9680   16.0280 H   0  0  0  0  0  0  0  0  0  0  0  0
   -5.2511  -19.1438   18.6845 H   0  0  0  0  0  0  0  0  0  0  0  0
   -7.4038  -20.2455   22.0073 H   0  0  0  0  0  0  0  0  0  0  0  0
   -9.5251  -18.8915   18.7713 H   0  0  0  0  0  0  0  0  0  0  0  0
   -7.9257  -18.8481   14.1616 H   0  0  0  0  0  0  0  0  0  0  0  0
   -9.3369  -17.7970   14.3745 H   0  0  0  0  0  0  0  0  0  0  0  0
  1  2  2  0
  2  3  1  0
  3  4  2  0
  4  5  1  0
  5  6  2  0
  6  7  1  0
  2  8  1  0
  8  9  1  0
  9 10  1  0
 10 11  1  0
 11 12  1  0
 12 13  1  0
 11 14  1  0
 14 15  1  0
 15 16  1  0
 16 17  2  0
 17 18  1  0
 18 19  2  0
 19 20  1  0
 20 21  2  0
 15 22  1  0
 22 23  2  0
 22 24  1  0
 24 25  1  0
  7  3  1  0
 13  8  1  0
 21 16  1  0
 25 11  1  0
  4 26  1  0
  5 27  1  0
  6 28  1  0
  9 29  1  0
  9 30  1  0
 10 31  1  0
 10 32  1  0
 12 33  1  0
 12 34  1  0
 13 35  1  0
 13 36  1  0
 14 37  1  0
 14 38  1  0
 17 39  1  0
 19 40  1  0
 21 41  1  0
 24 42  1  0
 24 43  1  0
M  END
>  <Energy>  (709) 
668.11866316030785

>  <compound_id>  (709) 
17491

>  <target_id>  (709) 
1

>  <reference_id>  (709) 
66

>  <inspiration_ids>  (709) 
[66, 54]

>  <energy_score>  (709) 
491.7709210124482

>  <distance_score>  (709) 
16.71894749739893

>  <path>  (709) 
/opt/xchem-fragalysis-2/maxwin/BulkDock/SCRATCH/511014/C17491-P66/C17491-P66.minimised.mol

>  <scratch_subdir>  (709) 
/opt/xchem-fragalysis-2/maxwin/BulkDock/SCRATCH/511014/C17491-P66

>  <fragmenstein_runtime>  (709) 
51.80122113227844

>  <fragmenstein_outcome>  (709) 
too moved

>  <fragmenstein_mode>  (709) 
expansion

>  <fragmenstein_error>  (709) 


$$$$
C17491-P54
     RDKit          3D

 43 46  0  0  0  0  0  0  0  0999 V2000
    0.8046  -11.6005   24.1616 O   0  0  0  0  0  0  0  0  0  0  0  0
    0.1102  -11.6950   23.1578 C   0  0  0  0  0  0  0  0  0  0  0  0
    1.1276  -11.6468   21.7079 C   0  0  0  0  0  0  0  0  0  0  0  0
    2.4025  -11.2156   21.5049 C   0  0  0  0  0  0  0  0  0  0  0  0
    3.3411  -11.9631   22.5881 C   0  0  0  0  0  0  0  0  0  0  0  0
    3.6432  -13.0706   21.8856 C   0  0  0  0  0  0  0  0  0  0  0  0
    2.2967  -13.0060   20.8970 S   0  0  0  0  0  0  0  0  0  0  0  0
   -1.8464  -11.7012   23.1188 N   0  0  0  0  0  0  0  0  0  0  0  0
   -2.7858  -12.6822   23.1870 C   0  0  0  0  0  0  0  0  0  0  0  0
   -4.4184  -13.2790   21.9294 C   0  0  0  0  0  0  0  0  0  0  0  0
   -5.7543  -14.3701   22.3310 C   0  0  0  0  0  0  0  0  0  0  0  0
   -3.8982  -14.3083   22.9868 C   0  0  0  0  0  0  0  0  0  0  0  0
   -2.4653  -13.4199   23.2810 C   0  0  0  0  0  0  0  0  0  0  0  0
   -7.5489  -13.6472   22.7495 C   0  0  0  0  0  0  0  0  0  0  0  0
   -8.7258  -14.6005   22.9106 N   0  0  0  0  0  0  0  0  0  0  0  0
   -9.8729  -14.0801   23.6061 C   0  0  0  0  0  0  0  0  0  0  0  0
   -9.7942  -13.5945   24.9020 C   0  0  0  0  0  0  0  0  0  0  0  0
  -10.8286  -13.0829   25.6057 N   0  0  0  0  0  0  0  0  0  0  0  0
  -12.0063  -13.0708   24.9734 C   0  0  0  0  0  0  0  0  0  0  0  0
  -12.2344  -13.5654   23.7472 N   0  0  0  0  0  0  0  0  0  0  0  0
  -11.1574  -14.0607   23.0915 C   0  0  0  0  0  0  0  0  0  0  0  0
   -8.8773  -15.7892   22.2098 C   0  0  0  0  0  0  0  0  0  0  0  0
   -9.9754  -16.2013   21.8287 O   0  0  0  0  0  0  0  0  0  0  0  0
   -7.6418  -16.6782   22.0474 C   0  0  0  0  0  0  0  0  0  0  0  0
   -6.2831  -16.2314   22.3081 O   0  0  0  0  0  0  0  0  0  0  0  0
    2.6051  -10.8882   20.4680 H   0  0  0  0  0  0  0  0  0  0  0  0
    4.0833  -11.5230   23.2271 H   0  0  0  0  0  0  0  0  0  0  0  0
    4.4194  -13.8075   21.8620 H   0  0  0  0  0  0  0  0  0  0  0  0
   -1.6213  -12.6585   22.1918 H   0  0  0  0  0  0  0  0  0  0  0  0
   -3.2333  -11.7974   23.8028 H   0  0  0  0  0  0  0  0  0  0  0  0
   -4.8073  -12.0420   21.8802 H   0  0  0  0  0  0  0  0  0  0  0  0
   -5.4641  -12.8671   21.6104 H   0  0  0  0  0  0  0  0  0  0  0  0
   -3.4568  -14.9802   23.7533 H   0  0  0  0  0  0  0  0  0  0  0  0
   -3.4751  -14.6693   22.0817 H   0  0  0  0  0  0  0  0  0  0  0  0
   -2.4224  -13.4143   24.6836 H   0  0  0  0  0  0  0  0  0  0  0  0
   -1.8073  -14.0856   22.6150 H   0  0  0  0  0  0  0  0  0  0  0  0
   -7.5563  -13.0830   23.6904 H   0  0  0  0  0  0  0  0  0  0  0  0
   -7.7951  -12.8606   22.0249 H   0  0  0  0  0  0  0  0  0  0  0  0
   -8.8777  -13.6206   25.4724 H   0  0  0  0  0  0  0  0  0  0  0  0
  -12.8526  -12.6481   25.5036 H   0  0  0  0  0  0  0  0  0  0  0  0
  -11.3834  -14.3990   22.0846 H   0  0  0  0  0  0  0  0  0  0  0  0
   -7.7860  -17.5642   22.6623 H   0  0  0  0  0  0  0  0  0  0  0  0
   -7.6679  -17.0836   21.0239 H   0  0  0  0  0  0  0  0  0  0  0  0
  1  2  2  0
  2  3  1  0
  3  4  2  0
  4  5  1  0
  5  6  2  0
  6  7  1  0
  2  8  1  0
  8  9  1  0
  9 10  1  0
 10 11  1  0
 11 12  1  0
 12 13  1  0
 11 14  1  0
 14 15  1  0
 15 16  1  0
 16 17  2  0
 17 18  1  0
 18 19  2  0
 19 20  1  0
 20 21  2  0
 15 22  1  0
 22 23  2  0
 22 24  1  0
 24 25  1  0
  7  3  1  0
 13  8  1  0
 21 16  1  0
 25 11  1  0
  4 26  1  0
  5 27  1  0
  6 28  1  0
  9 29  1  0
  9 30  1  0
 10 31  1  0
 10 32  1  0
 12 33  1  0
 12 34  1  0
 13 35  1  0
 13 36  1  0
 14 37  1  0
 14 38  1  0
 17 39  1  0
 19 40  1  0
 21 41  1  0
 24 42  1  0
 24 43  1  0
M  END
>  <Energy>  (710) 
1750.8153126585444

>  <compound_id>  (710) 
17491

>  <target_id>  (710) 
1

>  <reference_id>  (710) 
54

>  <inspiration_ids>  (710) 
[66, 54]

>  <energy_score>  (710) 
1574.4675705106636

>  <distance_score>  (710) 
14.594529683982584

>  <path>  (710) 
/opt/xchem-fragalysis-2/maxwin/BulkDock/SCRATCH/511014/C17491-P54/C17491-P54.minimised.mol

>  <scratch_subdir>  (710) 
/opt/xchem-fragalysis-2/maxwin/BulkDock/SCRATCH/511014/C17491-P54

>  <fragmenstein_runtime>  (710) 
19.606451749801636

>  <fragmenstein_outcome>  (710) 
too moved

>  <fragmenstein_mode>  (710) 
expansion

>  <fragmenstein_error>  (710) 


$$$$
C17492-P66
     RDKit          3D

 47 50  0  0  0  0  0  0  0  0999 V2000
    4.2459   -7.4051   23.3415 O   0  0  0  0  0  0  0  0  0  0  0  0
    3.2865   -7.2230   24.0630 C   0  0  0  0  0  0  0  0  0  0  0  0
    3.7867   -6.0923   25.4094 C   0  0  0  0  0  0  0  0  0  0  0  0
    4.9994   -5.5389   25.7317 C   0  0  0  0  0  0  0  0  0  0  0  0
    6.3418   -5.6452   25.2294 C   0  0  0  0  0  0  0  0  0  0  0  0
    7.1318   -4.5879   24.7641 C   0  0  0  0  0  0  0  0  0  0  0  0
    8.4769   -4.9362   24.4658 C   0  0  0  0  0  0  0  0  0  0  0  0
    8.7322   -6.2288   24.8443 C   0  0  0  0  0  0  0  0  0  0  0  0
    7.3278   -7.0319   25.4230 S   0  0  0  0  0  0  0  0  0  0  0  0
    1.5673   -7.9775   23.5167 N   0  0  0  0  0  0  0  0  0  0  0  0
    1.0836   -8.8621   21.9421 C   0  0  0  0  0  0  0  0  0  0  0  0
    0.2387  -10.1089   21.5979 C   0  0  0  0  0  0  0  0  0  0  0  0
   -0.9880  -10.8660   21.7907 C   0  0  0  0  0  0  0  0  0  0  0  0
   -1.0334   -8.8511   22.1734 C   0  0  0  0  0  0  0  0  0  0  0  0
    0.4124   -7.4208   22.6841 C   0  0  0  0  0  0  0  0  0  0  0  0
   -1.8316  -12.2998   20.6597 C   0  0  0  0  0  0  0  0  0  0  0  0
   -1.8885  -14.2473   20.9753 N   0  0  0  0  0  0  0  0  0  0  0  0
   -2.1254  -15.6739   20.0298 C   0  0  0  0  0  0  0  0  0  0  0  0
   -3.1358  -16.5239   20.3268 C   0  0  0  0  0  0  0  0  0  0  0  0
   -3.7830  -17.5446   19.6514 N   0  0  0  0  0  0  0  0  0  0  0  0
   -2.9756  -18.3112   19.0795 C   0  0  0  0  0  0  0  0  0  0  0  0
   -1.7265  -17.9620   19.1282 N   0  0  0  0  0  0  0  0  0  0  0  0
   -1.3686  -16.7711   19.7992 C   0  0  0  0  0  0  0  0  0  0  0  0
   -0.7404  -14.8796   22.1702 C   0  0  0  0  0  0  0  0  0  0  0  0
   -0.0975  -15.9097   21.7986 O   0  0  0  0  0  0  0  0  0  0  0  0
   -0.2185  -13.8785   23.1812 C   0  0  0  0  0  0  0  0  0  0  0  0
    0.0889  -12.1384   22.7089 O   0  0  0  0  0  0  0  0  0  0  0  0
    2.9802   -5.4174   25.7486 H   0  0  0  0  0  0  0  0  0  0  0  0
    4.9160   -4.7138   26.4419 H   0  0  0  0  0  0  0  0  0  0  0  0
    6.7501   -3.5822   24.6479 H   0  0  0  0  0  0  0  0  0  0  0  0
    9.2256   -4.2627   24.0694 H   0  0  0  0  0  0  0  0  0  0  0  0
    9.6738   -6.7562   24.7971 H   0  0  0  0  0  0  0  0  0  0  0  0
    2.0671   -9.1350   21.6796 H   0  0  0  0  0  0  0  0  0  0  0  0
    0.8684   -8.2226   21.0498 H   0  0  0  0  0  0  0  0  0  0  0  0
    0.8211  -10.6471   20.9930 H   0  0  0  0  0  0  0  0  0  0  0  0
    0.2035  -10.3833   22.5973 H   0  0  0  0  0  0  0  0  0  0  0  0
   -1.8771   -8.6826   22.8409 H   0  0  0  0  0  0  0  0  0  0  0  0
   -1.4114   -8.4739   21.2070 H   0  0  0  0  0  0  0  0  0  0  0  0
   -0.0879   -7.0172   23.5840 H   0  0  0  0  0  0  0  0  0  0  0  0
    0.6659   -6.6149   21.9872 H   0  0  0  0  0  0  0  0  0  0  0  0
   -1.5409  -12.0976   19.6254 H   0  0  0  0  0  0  0  0  0  0  0  0
   -2.8818  -11.9991   20.5984 H   0  0  0  0  0  0  0  0  0  0  0  0
   -3.7255  -16.4078   21.2325 H   0  0  0  0  0  0  0  0  0  0  0  0
   -3.3936  -19.2233   18.7162 H   0  0  0  0  0  0  0  0  0  0  0  0
   -0.3283  -16.8583   20.1053 H   0  0  0  0  0  0  0  0  0  0  0  0
   -0.7724  -14.0739   24.1138 H   0  0  0  0  0  0  0  0  0  0  0  0
    0.7187  -14.1784   23.6966 H   0  0  0  0  0  0  0  0  0  0  0  0
  1  2  2  0
  2  3  1  0
  3  4  2  3
  4  5  1  0
  5  6  2  0
  6  7  1  0
  7  8  2  0
  8  9  1  0
  2 10  1  0
 10 11  1  0
 11 12  1  0
 12 13  1  0
 13 14  1  0
 14 15  1  0
 13 16  1  0
 16 17  1  0
 17 18  1  0
 18 19  2  0
 19 20  1  0
 20 21  2  0
 21 22  1  0
 22 23  2  0
 17 24  1  0
 24 25  2  0
 24 26  1  0
 26 27  1  0
  9  5  1  0
 15 10  1  0
 23 18  1  0
 27 13  1  0
  3 28  1  0
  4 29  1  0
  6 30  1  0
  7 31  1  0
  8 32  1  0
 11 33  1  0
 11 34  1  0
 12 35  1  0
 12 36  1  0
 14 37  1  0
 14 38  1  0
 15 39  1  0
 15 40  1  0
 16 41  1  0
 16 42  1  0
 19 43  1  0
 21 44  1  0
 23 45  1  0
 26 46  1  0
 26 47  1  0
M  END
>  <Energy>  (711) 
1235.5501960383485

>  <compound_id>  (711) 
17492

>  <target_id>  (711) 
1

>  <reference_id>  (711) 
66

>  <inspiration_ids>  (711) 
[66, 54]

>  <energy_score>  (711) 
1062.988325419183

>  <distance_score>  (711) 
13.4274400905393

>  <path>  (711) 
/opt/xchem-fragalysis-2/maxwin/BulkDock/SCRATCH/511014/C17492-P66/C17492-P66.minimised.mol

>  <scratch_subdir>  (711) 
/opt/xchem-fragalysis-2/maxwin/BulkDock/SCRATCH/511014/C17492-P66

>  <fragmenstein_runtime>  (711) 
35.371426582336426

>  <fragmenstein_outcome>  (711) 
too moved

>  <fragmenstein_mode>  (711) 
expansion

>  <fragmenstein_error>  (711) 


$$$$
C17492-P54
     RDKit          3D

 47 50  0  0  0  0  0  0  0  0999 V2000
    1.7742   -5.6642   28.6983 O   0  0  0  0  0  0  0  0  0  0  0  0
    1.2407   -6.3232   27.8406 C   0  0  0  0  0  0  0  0  0  0  0  0
    1.8880   -6.1849   26.4220 C   0  0  0  0  0  0  0  0  0  0  0  0
    3.0311   -5.4458   26.2636 C   0  0  0  0  0  0  0  0  0  0  0  0
    3.8790   -5.3077   25.1003 C   0  0  0  0  0  0  0  0  0  0  0  0
    4.1889   -4.1609   24.3709 C   0  0  0  0  0  0  0  0  0  0  0  0
    5.1234   -4.3760   23.3066 C   0  0  0  0  0  0  0  0  0  0  0  0
    5.5654   -5.6767   23.2800 C   0  0  0  0  0  0  0  0  0  0  0  0
    4.8793   -6.6073   24.5472 S   0  0  0  0  0  0  0  0  0  0  0  0
    0.1540   -7.3025   27.9332 N   0  0  0  0  0  0  0  0  0  0  0  0
   -0.5691   -7.8844   29.1660 C   0  0  0  0  0  0  0  0  0  0  0  0
   -2.0139   -7.8518   29.7478 C   0  0  0  0  0  0  0  0  0  0  0  0
   -3.1085   -8.1336   28.7232 C   0  0  0  0  0  0  0  0  0  0  0  0
   -2.5266   -7.4314   27.4604 C   0  0  0  0  0  0  0  0  0  0  0  0
   -1.1934   -6.6132   27.7398 C   0  0  0  0  0  0  0  0  0  0  0  0
   -3.5331   -9.6971   28.6102 C   0  0  0  0  0  0  0  0  0  0  0  0
   -4.8992  -10.1382   29.0936 N   0  0  0  0  0  0  0  0  0  0  0  0
   -5.2164  -11.5676   29.3337 C   0  0  0  0  0  0  0  0  0  0  0  0
   -4.2617  -12.5307   29.6238 C   0  0  0  0  0  0  0  0  0  0  0  0
   -4.4936  -13.8643   29.8064 N   0  0  0  0  0  0  0  0  0  0  0  0
   -5.7609  -14.2726   29.6806 C   0  0  0  0  0  0  0  0  0  0  0  0
   -6.7963  -13.4692   29.4327 N   0  0  0  0  0  0  0  0  0  0  0  0
   -6.4942  -12.1417   29.2788 C   0  0  0  0  0  0  0  0  0  0  0  0
   -5.9251   -9.1816   29.0162 C   0  0  0  0  0  0  0  0  0  0  0  0
   -7.1143   -9.3806   29.2545 O   0  0  0  0  0  0  0  0  0  0  0  0
   -5.4619   -7.7949   28.5657 C   0  0  0  0  0  0  0  0  0  0  0  0
   -4.2485   -7.3750   29.1684 O   0  0  0  0  0  0  0  0  0  0  0  0
    1.4462   -6.7905   25.6448 H   0  0  0  0  0  0  0  0  0  0  0  0
    3.3888   -4.8863   27.1301 H   0  0  0  0  0  0  0  0  0  0  0  0
    3.7412   -3.1962   24.5838 H   0  0  0  0  0  0  0  0  0  0  0  0
    5.4574   -3.6129   22.6127 H   0  0  0  0  0  0  0  0  0  0  0  0
    6.2731   -6.1234   22.5948 H   0  0  0  0  0  0  0  0  0  0  0  0
   -0.3123   -8.9482   29.1111 H   0  0  0  0  0  0  0  0  0  0  0  0
    0.0617   -7.5217   29.9932 H   0  0  0  0  0  0  0  0  0  0  0  0
   -2.0828   -8.5641   30.5804 H   0  0  0  0  0  0  0  0  0  0  0  0
   -2.1766   -6.8713   30.2197 H   0  0  0  0  0  0  0  0  0  0  0  0
   -2.3780   -8.1130   26.6283 H   0  0  0  0  0  0  0  0  0  0  0  0
   -3.2568   -6.6976   27.0927 H   0  0  0  0  0  0  0  0  0  0  0  0
   -1.3309   -5.7953   28.4690 H   0  0  0  0  0  0  0  0  0  0  0  0
   -1.0443   -6.0524   26.8028 H   0  0  0  0  0  0  0  0  0  0  0  0
   -2.7648  -10.3054   29.0917 H   0  0  0  0  0  0  0  0  0  0  0  0
   -3.5677   -9.9417   27.5460 H   0  0  0  0  0  0  0  0  0  0  0  0
   -3.2135  -12.2738   29.7344 H   0  0  0  0  0  0  0  0  0  0  0  0
   -5.9526  -15.3329   29.7832 H   0  0  0  0  0  0  0  0  0  0  0  0
   -7.3797  -11.5546   29.0576 H   0  0  0  0  0  0  0  0  0  0  0  0
   -5.3901   -7.7751   27.4724 H   0  0  0  0  0  0  0  0  0  0  0  0
   -6.2309   -7.0741   28.8629 H   0  0  0  0  0  0  0  0  0  0  0  0
  1  2  2  0
  2  3  1  0
  3  4  2  3
  4  5  1  0
  5  6  2  0
  6  7  1  0
  7  8  2  0
  8  9  1  0
  2 10  1  0
 10 11  1  0
 11 12  1  0
 12 13  1  0
 13 14  1  0
 14 15  1  0
 13 16  1  0
 16 17  1  0
 17 18  1  0
 18 19  2  0
 19 20  1  0
 20 21  2  0
 21 22  1  0
 22 23  2  0
 17 24  1  0
 24 25  2  0
 24 26  1  0
 26 27  1  0
  9  5  1  0
 15 10  1  0
 23 18  1  0
 27 13  1  0
  3 28  1  0
  4 29  1  0
  6 30  1  0
  7 31  1  0
  8 32  1  0
 11 33  1  0
 11 34  1  0
 12 35  1  0
 12 36  1  0
 14 37  1  0
 14 38  1  0
 15 39  1  0
 15 40  1  0
 16 41  1  0
 16 42  1  0
 19 43  1  0
 21 44  1  0
 23 45  1  0
 26 46  1  0
 26 47  1  0
M  END
>  <Energy>  (712) 
187.08260081708423

>  <compound_id>  (712) 
17492

>  <target_id>  (712) 
1

>  <reference_id>  (712) 
54

>  <inspiration_ids>  (712) 
[66, 54]

>  <energy_score>  (712) 
14.520730197940907

>  <distance_score>  (712) 
13.06540576702421

>  <path>  (712) 
/opt/xchem-fragalysis-2/maxwin/BulkDock/SCRATCH/511014/C17492-P54/C17492-P54.minimised.mol

>  <scratch_subdir>  (712) 
/opt/xchem-fragalysis-2/maxwin/BulkDock/SCRATCH/511014/C17492-P54

>  <fragmenstein_runtime>  (712) 
41.578808546066284

>  <fragmenstein_outcome>  (712) 
too moved

>  <fragmenstein_mode>  (712) 
expansion

>  <fragmenstein_error>  (712) 


$$$$
C17493-P66
     RDKit          3D

 43 46  0  0  0  0  0  0  0  0999 V2000
    1.2731   -6.7636   20.0798 O   0  0  0  0  0  0  0  0  0  0  0  0
    1.1549   -7.8589   19.5272 C   0  0  0  0  0  0  0  0  0  0  0  0
    2.4826   -8.0092   18.0652 C   0  0  0  0  0  0  0  0  0  0  0  0
    4.2234   -7.1340   17.8927 C   0  0  0  0  0  0  0  0  0  0  0  0
    4.7741   -6.3782   16.8079 C   0  0  0  0  0  0  0  0  0  0  0  0
    3.6335   -6.3737   15.3755 S   0  0  0  0  0  0  0  0  0  0  0  0
    2.2770   -7.9770   16.5548 C   0  0  0  0  0  0  0  0  0  0  0  0
    0.2850   -9.0213   19.8737 N   0  0  0  0  0  0  0  0  0  0  0  0
   -0.6629   -9.2817   21.0958 C   0  0  0  0  0  0  0  0  0  0  0  0
   -1.4082  -11.1149   21.1999 C   0  0  0  0  0  0  0  0  0  0  0  0
   -2.0949  -12.9023   20.5603 C   0  0  0  0  0  0  0  0  0  0  0  0
   -1.9189  -11.4512   19.2362 C   0  0  0  0  0  0  0  0  0  0  0  0
   -1.4750   -9.4589   19.3053 C   0  0  0  0  0  0  0  0  0  0  0  0
   -1.8759  -14.6439   21.6073 C   0  0  0  0  0  0  0  0  0  0  0  0
   -3.1910  -15.2601   22.9909 N   0  0  0  0  0  0  0  0  0  0  0  0
   -2.5800  -15.5701   24.6764 C   0  0  0  0  0  0  0  0  0  0  0  0
   -2.2362  -14.6596   25.6962 C   0  0  0  0  0  0  0  0  0  0  0  0
   -2.3249  -14.8480   27.2414 N   0  0  0  0  0  0  0  0  0  0  0  0
   -2.5266  -15.9834   27.8550 C   0  0  0  0  0  0  0  0  0  0  0  0
   -2.6671  -16.9453   27.0415 N   0  0  0  0  0  0  0  0  0  0  0  0
   -3.0108  -16.4291   25.7203 C   0  0  0  0  0  0  0  0  0  0  0  0
   -3.7915  -16.3883   21.6196 C   0  0  0  0  0  0  0  0  0  0  0  0
   -4.8661  -16.9488   21.4747 O   0  0  0  0  0  0  0  0  0  0  0  0
   -2.6842  -16.0879   20.0762 C   0  0  0  0  0  0  0  0  0  0  0  0
   -1.8523  -14.5490   19.5885 O   0  0  0  0  0  0  0  0  0  0  0  0
    4.9260   -7.1034   18.6684 H   0  0  0  0  0  0  0  0  0  0  0  0
    5.7162   -5.8716   16.7143 H   0  0  0  0  0  0  0  0  0  0  0  0
    2.8356   -8.3853   15.8034 H   0  0  0  0  0  0  0  0  0  0  0  0
    0.0085   -9.2415   21.9494 H   0  0  0  0  0  0  0  0  0  0  0  0
   -1.4138   -8.5254   21.3558 H   0  0  0  0  0  0  0  0  0  0  0  0
   -2.4092  -10.7271   21.4562 H   0  0  0  0  0  0  0  0  0  0  0  0
   -0.7640  -11.2529   22.0376 H   0  0  0  0  0  0  0  0  0  0  0  0
   -2.9729  -11.3630   18.9270 H   0  0  0  0  0  0  0  0  0  0  0  0
   -1.4270  -11.8816   18.3630 H   0  0  0  0  0  0  0  0  0  0  0  0
   -1.4546   -9.1653   18.2466 H   0  0  0  0  0  0  0  0  0  0  0  0
   -2.3057   -8.9007   19.7577 H   0  0  0  0  0  0  0  0  0  0  0  0
   -1.4223  -15.4752   21.0792 H   0  0  0  0  0  0  0  0  0  0  0  0
   -0.9084  -14.7192   22.3064 H   0  0  0  0  0  0  0  0  0  0  0  0
   -1.9062  -13.6540   25.4909 H   0  0  0  0  0  0  0  0  0  0  0  0
   -2.4893  -16.0920   28.9210 H   0  0  0  0  0  0  0  0  0  0  0  0
   -4.0284  -16.0795   26.0506 H   0  0  0  0  0  0  0  0  0  0  0  0
   -3.1234  -16.5472   19.1824 H   0  0  0  0  0  0  0  0  0  0  0  0
   -1.8430  -16.8165   20.1164 H   0  0  0  0  0  0  0  0  0  0  0  0
  1  2  2  0
  2  3  1  0
  3  4  1  0
  4  5  2  0
  5  6  1  0
  6  7  1  0
  2  8  1  0
  8  9  1  0
  9 10  1  0
 10 11  1  0
 11 12  1  0
 12 13  1  0
 11 14  1  0
 14 15  1  0
 15 16  1  0
 16 17  2  0
 17 18  1  0
 18 19  2  0
 19 20  1  0
 20 21  2  0
 15 22  1  0
 22 23  2  0
 22 24  1  0
 24 25  1  0
  7  3  2  0
 13  8  1  0
 21 16  1  0
 25 11  1  0
  4 26  1  0
  5 27  1  0
  7 28  1  0
  9 29  1  0
  9 30  1  0
 10 31  1  0
 10 32  1  0
 12 33  1  0
 12 34  1  0
 13 35  1  0
 13 36  1  0
 14 37  1  0
 14 38  1  0
 17 39  1  0
 19 40  1  0
 21 41  1  0
 24 42  1  0
 24 43  1  0
M  END
>  <Energy>  (713) 
1567.2592886206053

>  <compound_id>  (713) 
17493

>  <target_id>  (713) 
1

>  <reference_id>  (713) 
66

>  <inspiration_ids>  (713) 
[66, 54]

>  <energy_score>  (713) 
1417.1889085335417

>  <distance_score>  (713) 
11.929714843835606

>  <path>  (713) 
/opt/xchem-fragalysis-2/maxwin/BulkDock/SCRATCH/511014/C17493-P66/C17493-P66.minimised.mol

>  <scratch_subdir>  (713) 
/opt/xchem-fragalysis-2/maxwin/BulkDock/SCRATCH/511014/C17493-P66

>  <fragmenstein_runtime>  (713) 
42.14022350311279

>  <fragmenstein_outcome>  (713) 
too moved

>  <fragmenstein_mode>  (713) 
expansion

>  <fragmenstein_error>  (713) 


$$$$
C17493-P54
     RDKit          3D

 43 46  0  0  0  0  0  0  0  0999 V2000
    5.0157   -9.7722   21.5787 O   0  0  0  0  0  0  0  0  0  0  0  0
    4.6050  -10.4839   22.4713 C   0  0  0  0  0  0  0  0  0  0  0  0
    5.4702  -10.2707   23.7049 C   0  0  0  0  0  0  0  0  0  0  0  0
    6.9713  -10.4690   23.4473 C   0  0  0  0  0  0  0  0  0  0  0  0
    7.8391   -9.5064   23.9129 C   0  0  0  0  0  0  0  0  0  0  0  0
    7.0028   -8.2483   24.6577 S   0  0  0  0  0  0  0  0  0  0  0  0
    5.4860   -9.0346   24.4012 C   0  0  0  0  0  0  0  0  0  0  0  0
    3.0381  -11.5607   22.1040 N   0  0  0  0  0  0  0  0  0  0  0  0
    2.3022  -11.7454   20.8990 C   0  0  0  0  0  0  0  0  0  0  0  0
    1.7948  -13.0929   20.7801 C   0  0  0  0  0  0  0  0  0  0  0  0
   -0.0662  -13.8997   19.9668 C   0  0  0  0  0  0  0  0  0  0  0  0
   -0.1571  -12.6218   21.6073 C   0  0  0  0  0  0  0  0  0  0  0  0
    1.1875  -11.2078   22.3317 C   0  0  0  0  0  0  0  0  0  0  0  0
   -0.8819  -15.2736   18.4951 C   0  0  0  0  0  0  0  0  0  0  0  0
   -1.9063  -16.8145   18.1174 N   0  0  0  0  0  0  0  0  0  0  0  0
   -3.3970  -17.5960   17.7134 C   0  0  0  0  0  0  0  0  0  0  0  0
   -4.5869  -17.3170   17.0483 C   0  0  0  0  0  0  0  0  0  0  0  0
   -5.8221  -17.9641   17.1187 N   0  0  0  0  0  0  0  0  0  0  0  0
   -5.9432  -18.9916   17.9467 C   0  0  0  0  0  0  0  0  0  0  0  0
   -4.9285  -19.4551   18.6293 N   0  0  0  0  0  0  0  0  0  0  0  0
   -3.7695  -18.7236   18.4750 C   0  0  0  0  0  0  0  0  0  0  0  0
   -2.2310  -16.7037   19.3155 C   0  0  0  0  0  0  0  0  0  0  0  0
   -3.3722  -16.2149   19.3306 O   0  0  0  0  0  0  0  0  0  0  0  0
   -0.8685  -16.6245   20.0031 C   0  0  0  0  0  0  0  0  0  0  0  0
   -0.5849  -15.2398   20.2849 O   0  0  0  0  0  0  0  0  0  0  0  0
    7.3795  -11.2616   22.8404 H   0  0  0  0  0  0  0  0  0  0  0  0
    8.9147   -9.4808   23.8041 H   0  0  0  0  0  0  0  0  0  0  0  0
    4.6814   -8.3789   24.6716 H   0  0  0  0  0  0  0  0  0  0  0  0
    1.6939  -10.8617   20.5973 H   0  0  0  0  0  0  0  0  0  0  0  0
    2.7241  -11.2887   19.9971 H   0  0  0  0  0  0  0  0  0  0  0  0
    2.5494  -13.7283   21.2419 H   0  0  0  0  0  0  0  0  0  0  0  0
    2.3740  -13.1375   19.8168 H   0  0  0  0  0  0  0  0  0  0  0  0
   -0.9622  -12.2379   20.9977 H   0  0  0  0  0  0  0  0  0  0  0  0
   -0.9048  -12.8765   22.3797 H   0  0  0  0  0  0  0  0  0  0  0  0
    0.9630  -11.2234   23.4239 H   0  0  0  0  0  0  0  0  0  0  0  0
    0.9841  -10.2184   21.9314 H   0  0  0  0  0  0  0  0  0  0  0  0
   -0.0133  -15.4638   17.9357 H   0  0  0  0  0  0  0  0  0  0  0  0
   -1.7856  -14.8344   17.9484 H   0  0  0  0  0  0  0  0  0  0  0  0
   -4.6828  -16.5723   16.2815 H   0  0  0  0  0  0  0  0  0  0  0  0
   -6.9040  -19.4776   18.0381 H   0  0  0  0  0  0  0  0  0  0  0  0
   -3.0299  -19.1224   19.1411 H   0  0  0  0  0  0  0  0  0  0  0  0
    0.0017  -16.9516   19.5209 H   0  0  0  0  0  0  0  0  0  0  0  0
   -1.0001  -17.2139   20.8564 H   0  0  0  0  0  0  0  0  0  0  0  0
  1  2  2  0
  2  3  1  0
  3  4  1  0
  4  5  2  0
  5  6  1  0
  6  7  1  0
  2  8  1  0
  8  9  1  0
  9 10  1  0
 10 11  1  0
 11 12  1  0
 12 13  1  0
 11 14  1  0
 14 15  1  0
 15 16  1  0
 16 17  2  0
 17 18  1  0
 18 19  2  0
 19 20  1  0
 20 21  2  0
 15 22  1  0
 22 23  2  0
 22 24  1  0
 24 25  1  0
  7  3  2  0
 13  8  1  0
 21 16  1  0
 25 11  1  0
  4 26  1  0
  5 27  1  0
  7 28  1  0
  9 29  1  0
  9 30  1  0
 10 31  1  0
 10 32  1  0
 12 33  1  0
 12 34  1  0
 13 35  1  0
 13 36  1  0
 14 37  1  0
 14 38  1  0
 17 39  1  0
 19 40  1  0
 21 41  1  0
 24 42  1  0
 24 43  1  0
M  END
>  <Energy>  (714) 
1420.5990139996784

>  <compound_id>  (714) 
17493

>  <target_id>  (714) 
1

>  <reference_id>  (714) 
54

>  <inspiration_ids>  (714) 
[66, 54]

>  <energy_score>  (714) 
1270.528633912602

>  <distance_score>  (714) 
13.787781934781687

>  <path>  (714) 
/opt/xchem-fragalysis-2/maxwin/BulkDock/SCRATCH/511014/C17493-P54/C17493-P54.minimised.mol

>  <scratch_subdir>  (714) 
/opt/xchem-fragalysis-2/maxwin/BulkDock/SCRATCH/511014/C17493-P54

>  <fragmenstein_runtime>  (714) 
20.969698905944824

>  <fragmenstein_outcome>  (714) 
too moved

>  <fragmenstein_mode>  (714) 
expansion

>  <fragmenstein_error>  (714) 


$$$$
C17494-P66
     RDKit          3D

 44 47  0  0  0  0  0  0  0  0999 V2000
   -9.8565   -4.9034   21.3144 O   0  0  0  0  0  0  0  0  0  0  0  0
   -8.7526   -4.4845   21.6672 C   0  0  0  0  0  0  0  0  0  0  0  0
   -8.1697   -3.2262   20.9740 C   0  0  0  0  0  0  0  0  0  0  0  0
   -7.0820   -2.5000   21.5285 O   0  0  0  0  0  0  0  0  0  0  0  0
   -5.9889   -3.3467   21.9045 C   0  0  0  0  0  0  0  0  0  0  0  0
   -4.9307   -2.4543   22.6404 C   0  0  0  0  0  0  0  0  0  0  0  0
   -4.1046   -1.4522   21.7515 C   0  0  0  0  0  0  0  0  0  0  0  0
   -3.3636   -2.0919   20.6387 N   0  0  0  0  0  0  0  0  0  0  0  0
   -2.4576   -1.1567   19.8605 C   0  0  0  0  0  0  0  0  0  0  0  0
   -0.9880   -1.5628   19.5935 C   0  0  0  0  0  0  0  0  0  0  0  0
    0.1006   -1.5746   20.4580 C   0  0  0  0  0  0  0  0  0  0  0  0
    1.3473   -1.8840   19.8211 C   0  0  0  0  0  0  0  0  0  0  0  0
    1.1960   -2.0670   18.4682 C   0  0  0  0  0  0  0  0  0  0  0  0
   -0.4375   -1.8837   17.9854 S   0  0  0  0  0  0  0  0  0  0  0  0
   -4.3991   -2.8033   19.8338 C   0  0  0  0  0  0  0  0  0  0  0  0
   -5.2440   -3.8773   20.6475 C   0  0  0  0  0  0  0  0  0  0  0  0
   -6.6075   -4.4603   22.9402 C   0  0  0  0  0  0  0  0  0  0  0  0
   -7.9780   -5.0505   22.6821 N   0  0  0  0  0  0  0  0  0  0  0  0
   -8.5681   -6.0970   23.5767 C   0  0  0  0  0  0  0  0  0  0  0  0
   -9.5449   -7.0349   23.2071 C   0  0  0  0  0  0  0  0  0  0  0  0
   -9.9792   -8.1016   23.9634 N   0  0  0  0  0  0  0  0  0  0  0  0
   -9.4331   -8.2068   25.1823 C   0  0  0  0  0  0  0  0  0  0  0  0
   -8.5372   -7.3549   25.7063 N   0  0  0  0  0  0  0  0  0  0  0  0
   -8.1445   -6.3298   24.8815 C   0  0  0  0  0  0  0  0  0  0  0  0
   -7.9317   -3.5011   19.9407 H   0  0  0  0  0  0  0  0  0  0  0  0
   -8.9982   -2.5102   20.9147 H   0  0  0  0  0  0  0  0  0  0  0  0
   -5.4398   -1.8598   23.4098 H   0  0  0  0  0  0  0  0  0  0  0  0
   -4.2197   -3.1092   23.1600 H   0  0  0  0  0  0  0  0  0  0  0  0
   -4.7786   -0.6770   21.3647 H   0  0  0  0  0  0  0  0  0  0  0  0
   -3.3852   -0.9550   22.4136 H   0  0  0  0  0  0  0  0  0  0  0  0
   -2.9464   -0.8983   18.9120 H   0  0  0  0  0  0  0  0  0  0  0  0
   -2.3948   -0.2080   20.4122 H   0  0  0  0  0  0  0  0  0  0  0  0
    0.0047   -1.3797   21.5196 H   0  0  0  0  0  0  0  0  0  0  0  0
    2.2953   -1.9648   20.3405 H   0  0  0  0  0  0  0  0  0  0  0  0
    1.9589   -2.3067   17.7408 H   0  0  0  0  0  0  0  0  0  0  0  0
   -3.9124   -3.3253   19.0027 H   0  0  0  0  0  0  0  0  0  0  0  0
   -5.0932   -2.0778   19.3899 H   0  0  0  0  0  0  0  0  0  0  0  0
   -5.9493   -4.3325   19.9467 H   0  0  0  0  0  0  0  0  0  0  0  0
   -4.5728   -4.6758   20.9713 H   0  0  0  0  0  0  0  0  0  0  0  0
   -5.8951   -5.2861   23.0428 H   0  0  0  0  0  0  0  0  0  0  0  0
   -6.7008   -3.9612   23.9126 H   0  0  0  0  0  0  0  0  0  0  0  0
   -9.9893   -7.0173   22.2162 H   0  0  0  0  0  0  0  0  0  0  0  0
   -9.7496   -9.0385   25.8003 H   0  0  0  0  0  0  0  0  0  0  0  0
   -7.4273   -5.6593   25.3406 H   0  0  0  0  0  0  0  0  0  0  0  0
  1  2  2  0
  2  3  1  0
  3  4  1  0
  4  5  1  0
  5  6  1  0
  6  7  1  0
  7  8  1  0
  8  9  1  0
  9 10  1  0
 10 11  2  0
 11 12  1  0
 12 13  2  0
 13 14  1  0
  8 15  1  0
 15 16  1  0
  5 17  1  0
 17 18  1  0
 18 19  1  0
 19 20  2  0
 20 21  1  0
 21 22  2  0
 22 23  1  0
 23 24  2  0
 18  2  1  0
 24 19  1  0
 16  5  1  0
 14 10  1  0
  3 25  1  0
  3 26  1  0
  6 27  1  0
  6 28  1  0
  7 29  1  0
  7 30  1  0
  9 31  1  0
  9 32  1  0
 11 33  1  0
 12 34  1  0
 13 35  1  0
 15 36  1  0
 15 37  1  0
 16 38  1  0
 16 39  1  0
 17 40  1  0
 17 41  1  0
 20 42  1  0
 22 43  1  0
 24 44  1  0
M  END
>  <Energy>  (715) 
116.64583651798361

>  <compound_id>  (715) 
17494

>  <target_id>  (715) 
1

>  <reference_id>  (715) 
66

>  <inspiration_ids>  (715) 
[66, 54]

>  <energy_score>  (715) 
-50.53848846172173

>  <distance_score>  (715) 
16.16495383258219

>  <path>  (715) 
/opt/xchem-fragalysis-2/maxwin/BulkDock/SCRATCH/511014/C17494-P66/C17494-P66.minimised.mol

>  <scratch_subdir>  (715) 
/opt/xchem-fragalysis-2/maxwin/BulkDock/SCRATCH/511014/C17494-P66

>  <fragmenstein_runtime>  (715) 
52.95992088317871

>  <fragmenstein_outcome>  (715) 
too moved

>  <fragmenstein_mode>  (715) 
expansion

>  <fragmenstein_error>  (715) 


$$$$
C17494-P54
     RDKit          3D

 44 47  0  0  0  0  0  0  0  0999 V2000
   -2.0178  -16.1115   24.8656 O   0  0  0  0  0  0  0  0  0  0  0  0
   -2.1889  -16.0488   23.6398 C   0  0  0  0  0  0  0  0  0  0  0  0
   -2.1662  -14.2565   22.4133 C   0  0  0  0  0  0  0  0  0  0  0  0
   -1.3255  -14.1185   20.5831 O   0  0  0  0  0  0  0  0  0  0  0  0
   -1.1807  -15.8274   19.6108 C   0  0  0  0  0  0  0  0  0  0  0  0
   -0.3055  -16.1586   18.4831 C   0  0  0  0  0  0  0  0  0  0  0  0
   -0.3875  -16.6369   16.9755 C   0  0  0  0  0  0  0  0  0  0  0  0
   -0.7758  -15.4509   16.3002 N   0  0  0  0  0  0  0  0  0  0  0  0
   -0.4095  -15.2326   14.8735 C   0  0  0  0  0  0  0  0  0  0  0  0
    0.8204  -14.3733   14.3815 C   0  0  0  0  0  0  0  0  0  0  0  0
    1.0164  -13.8970   13.0787 C   0  0  0  0  0  0  0  0  0  0  0  0
    2.1989  -13.0980   12.8931 C   0  0  0  0  0  0  0  0  0  0  0  0
    2.9156  -12.9892   14.0566 C   0  0  0  0  0  0  0  0  0  0  0  0
    2.1504  -13.8455   15.3132 S   0  0  0  0  0  0  0  0  0  0  0  0
   -2.1699  -15.4262   16.7552 C   0  0  0  0  0  0  0  0  0  0  0  0
   -2.4700  -15.8643   18.3866 C   0  0  0  0  0  0  0  0  0  0  0  0
   -1.0129  -17.4468   20.7027 C   0  0  0  0  0  0  0  0  0  0  0  0
   -1.5002  -17.6186   22.5065 N   0  0  0  0  0  0  0  0  0  0  0  0
   -2.1385  -19.2297   22.7972 C   0  0  0  0  0  0  0  0  0  0  0  0
   -1.9102  -20.3383   22.0143 C   0  0  0  0  0  0  0  0  0  0  0  0
   -2.4684  -21.5610   22.2594 N   0  0  0  0  0  0  0  0  0  0  0  0
   -3.2796  -21.6711   23.3323 C   0  0  0  0  0  0  0  0  0  0  0  0
   -3.5385  -20.7034   24.2142 N   0  0  0  0  0  0  0  0  0  0  0  0
   -2.9527  -19.5180   23.9324 C   0  0  0  0  0  0  0  0  0  0  0  0
   -1.8125  -13.2911   22.7679 H   0  0  0  0  0  0  0  0  0  0  0  0
   -3.2444  -14.0778   22.2098 H   0  0  0  0  0  0  0  0  0  0  0  0
   -0.1129  -17.1533   18.8318 H   0  0  0  0  0  0  0  0  0  0  0  0
    0.2655  -15.2681   18.5920 H   0  0  0  0  0  0  0  0  0  0  0  0
    0.5423  -17.0294   16.5678 H   0  0  0  0  0  0  0  0  0  0  0  0
   -1.0786  -17.4871   16.8574 H   0  0  0  0  0  0  0  0  0  0  0  0
   -1.2723  -14.7336   14.4087 H   0  0  0  0  0  0  0  0  0  0  0  0
   -0.3345  -16.2076   14.3734 H   0  0  0  0  0  0  0  0  0  0  0  0
    0.3121  -14.1031   12.2804 H   0  0  0  0  0  0  0  0  0  0  0  0
    2.4912  -12.6358   11.9583 H   0  0  0  0  0  0  0  0  0  0  0  0
    3.8338  -12.4469   14.2377 H   0  0  0  0  0  0  0  0  0  0  0  0
   -2.7691  -16.1188   16.1464 H   0  0  0  0  0  0  0  0  0  0  0  0
   -2.5205  -14.4296   16.5375 H   0  0  0  0  0  0  0  0  0  0  0  0
   -3.3058  -15.2631   18.7022 H   0  0  0  0  0  0  0  0  0  0  0  0
   -2.8102  -16.9095   18.3567 H   0  0  0  0  0  0  0  0  0  0  0  0
   -0.0010  -17.8276   20.7057 H   0  0  0  0  0  0  0  0  0  0  0  0
   -1.3830  -18.2810   20.0972 H   0  0  0  0  0  0  0  0  0  0  0  0
   -1.2623  -20.3049   21.1472 H   0  0  0  0  0  0  0  0  0  0  0  0
   -3.7505  -22.6340   23.4991 H   0  0  0  0  0  0  0  0  0  0  0  0
   -3.1516  -18.7509   24.6778 H   0  0  0  0  0  0  0  0  0  0  0  0
  1  2  2  0
  2  3  1  0
  3  4  1  0
  4  5  1  0
  5  6  1  0
  6  7  1  0
  7  8  1  0
  8  9  1  0
  9 10  1  0
 10 11  2  0
 11 12  1  0
 12 13  2  0
 13 14  1  0
  8 15  1  0
 15 16  1  0
  5 17  1  0
 17 18  1  0
 18 19  1  0
 19 20  2  0
 20 21  1  0
 21 22  2  0
 22 23  1  0
 23 24  2  0
 18  2  1  0
 24 19  1  0
 16  5  1  0
 14 10  1  0
  3 25  1  0
  3 26  1  0
  6 27  1  0
  6 28  1  0
  7 29  1  0
  7 30  1  0
  9 31  1  0
  9 32  1  0
 11 33  1  0
 12 34  1  0
 13 35  1  0
 15 36  1  0
 15 37  1  0
 16 38  1  0
 16 39  1  0
 17 40  1  0
 17 41  1  0
 20 42  1  0
 22 43  1  0
 24 44  1  0
M  END
>  <Energy>  (716) 
751.87580966739199

>  <compound_id>  (716) 
17494

>  <target_id>  (716) 
1

>  <reference_id>  (716) 
54

>  <inspiration_ids>  (716) 
[66, 54]

>  <energy_score>  (716) 
584.6914846876901

>  <distance_score>  (716) 
15.31168673421544

>  <path>  (716) 
/opt/xchem-fragalysis-2/maxwin/BulkDock/SCRATCH/511014/C17494-P54/C17494-P54.minimised.mol

>  <scratch_subdir>  (716) 
/opt/xchem-fragalysis-2/maxwin/BulkDock/SCRATCH/511014/C17494-P54

>  <fragmenstein_runtime>  (716) 
19.12380886077881

>  <fragmenstein_outcome>  (716) 
too moved

>  <fragmenstein_mode>  (716) 
expansion

>  <fragmenstein_error>  (716) 


$$$$
C17495-P66
     RDKit          3D

 44 47  0  0  0  0  0  0  0  0999 V2000
   -6.1144  -11.3221   17.4400 O   0  0  0  0  0  0  0  0  0  0  0  0
   -5.2003  -12.1195   17.5829 C   0  0  0  0  0  0  0  0  0  0  0  0
   -3.4652  -11.7874   17.9171 C   0  0  0  0  0  0  0  0  0  0  0  0
   -2.2719  -12.4156   17.2804 O   0  0  0  0  0  0  0  0  0  0  0  0
   -1.7402  -13.8305   16.1590 C   0  0  0  0  0  0  0  0  0  0  0  0
   -0.8493  -13.7297   14.1775 C   0  0  0  0  0  0  0  0  0  0  0  0
    0.8233  -12.5414   14.0717 C   0  0  0  0  0  0  0  0  0  0  0  0
    1.7952  -12.5673   15.7838 N   0  0  0  0  0  0  0  0  0  0  0  0
    3.0141  -11.2153   16.6775 C   0  0  0  0  0  0  0  0  0  0  0  0
    2.8335   -9.3153   17.2465 C   0  0  0  0  0  0  0  0  0  0  0  0
    2.5094   -7.8894   16.0392 C   0  0  0  0  0  0  0  0  0  0  0  0
    3.1734   -6.6492   16.1162 C   0  0  0  0  0  0  0  0  0  0  0  0
    3.9144   -6.6343   17.6994 S   0  0  0  0  0  0  0  0  0  0  0  0
    2.4652   -8.2821   18.0609 C   0  0  0  0  0  0  0  0  0  0  0  0
    1.0601  -13.8113   16.8978 C   0  0  0  0  0  0  0  0  0  0  0  0
   -0.6790  -13.5836   17.3603 C   0  0  0  0  0  0  0  0  0  0  0  0
   -3.5036  -14.3882   16.5203 C   0  0  0  0  0  0  0  0  0  0  0  0
   -5.3035  -13.5987   17.0073 N   0  0  0  0  0  0  0  0  0  0  0  0
   -7.0319  -14.2360   16.7151 C   0  0  0  0  0  0  0  0  0  0  0  0
   -8.1359  -13.5623   17.4029 C   0  0  0  0  0  0  0  0  0  0  0  0
   -9.3317  -14.0987   17.8020 N   0  0  0  0  0  0  0  0  0  0  0  0
   -9.5301  -15.3648   17.4531 C   0  0  0  0  0  0  0  0  0  0  0  0
   -8.7276  -16.0490   16.6394 N   0  0  0  0  0  0  0  0  0  0  0  0
   -7.5627  -15.4240   16.2467 C   0  0  0  0  0  0  0  0  0  0  0  0
   -3.3262  -11.8140   19.0040 H   0  0  0  0  0  0  0  0  0  0  0  0
   -3.3465  -10.7328   17.6445 H   0  0  0  0  0  0  0  0  0  0  0  0
   -0.2820  -14.5189   13.6710 H   0  0  0  0  0  0  0  0  0  0  0  0
   -1.4667  -13.6184   13.3106 H   0  0  0  0  0  0  0  0  0  0  0  0
    1.0165  -12.1550   13.0589 H   0  0  0  0  0  0  0  0  0  0  0  0
    1.5303  -13.2013   13.9755 H   0  0  0  0  0  0  0  0  0  0  0  0
    3.4414  -11.7733   17.5092 H   0  0  0  0  0  0  0  0  0  0  0  0
    3.7641  -11.1897   15.8759 H   0  0  0  0  0  0  0  0  0  0  0  0
    2.2071   -8.0989   15.0192 H   0  0  0  0  0  0  0  0  0  0  0  0
    3.2990   -5.8661   15.3809 H   0  0  0  0  0  0  0  0  0  0  0  0
    1.7387   -8.1370   18.8375 H   0  0  0  0  0  0  0  0  0  0  0  0
    1.1458  -14.6580   16.2887 H   0  0  0  0  0  0  0  0  0  0  0  0
    1.6993  -14.0298   17.7701 H   0  0  0  0  0  0  0  0  0  0  0  0
   -1.1934  -14.2318   18.1035 H   0  0  0  0  0  0  0  0  0  0  0  0
   -0.6305  -12.6645   17.9319 H   0  0  0  0  0  0  0  0  0  0  0  0
   -3.5612  -15.4933   16.4970 H   0  0  0  0  0  0  0  0  0  0  0  0
   -3.0027  -14.0852   17.3721 H   0  0  0  0  0  0  0  0  0  0  0  0
   -7.9950  -12.5669   17.8216 H   0  0  0  0  0  0  0  0  0  0  0  0
  -10.4294  -15.8539   17.8051 H   0  0  0  0  0  0  0  0  0  0  0  0
   -7.2270  -15.8637   15.3359 H   0  0  0  0  0  0  0  0  0  0  0  0
  1  2  2  0
  2  3  1  0
  3  4  1  0
  4  5  1  0
  5  6  1  0
  6  7  1  0
  7  8  1  0
  8  9  1  0
  9 10  1  0
 10 11  1  0
 11 12  2  0
 12 13  1  0
 13 14  1  0
  8 15  1  0
 15 16  1  0
  5 17  1  0
 17 18  1  0
 18 19  1  0
 19 20  2  0
 20 21  1  0
 21 22  2  0
 22 23  1  0
 23 24  2  0
 18  2  1  0
 24 19  1  0
 16  5  1  0
 14 10  2  0
  3 25  1  0
  3 26  1  0
  6 27  1  0
  6 28  1  0
  7 29  1  0
  7 30  1  0
  9 31  1  0
  9 32  1  0
 11 33  1  0
 12 34  1  0
 14 35  1  0
 15 36  1  0
 15 37  1  0
 16 38  1  0
 16 39  1  0
 17 40  1  0
 17 41  1  0
 20 42  1  0
 22 43  1  0
 24 44  1  0
M  END
>  <Energy>  (717) 
1215.9803633676679

>  <compound_id>  (717) 
17495

>  <target_id>  (717) 
1

>  <reference_id>  (717) 
66

>  <inspiration_ids>  (717) 
[66, 54]

>  <energy_score>  (717) 
1058.155542871507

>  <distance_score>  (717) 
14.002050291703497

>  <path>  (717) 
/opt/xchem-fragalysis-2/maxwin/BulkDock/SCRATCH/511014/C17495-P66/C17495-P66.minimised.mol

>  <scratch_subdir>  (717) 
/opt/xchem-fragalysis-2/maxwin/BulkDock/SCRATCH/511014/C17495-P66

>  <fragmenstein_runtime>  (717) 
23.943569660186768

>  <fragmenstein_outcome>  (717) 
too moved

>  <fragmenstein_mode>  (717) 
expansion

>  <fragmenstein_error>  (717) 


$$$$
C17495-P54
     RDKit          3D

 44 47  0  0  0  0  0  0  0  0999 V2000
   -3.0386  -19.2314   17.4950 O   0  0  0  0  0  0  0  0  0  0  0  0
   -2.8866  -18.1272   17.9753 C   0  0  0  0  0  0  0  0  0  0  0  0
   -1.7614  -17.2783   17.7149 C   0  0  0  0  0  0  0  0  0  0  0  0
   -0.5966  -16.3273   18.5609 O   0  0  0  0  0  0  0  0  0  0  0  0
   -0.9788  -15.3935   19.6198 C   0  0  0  0  0  0  0  0  0  0  0  0
    0.0715  -13.7273   20.1952 C   0  0  0  0  0  0  0  0  0  0  0  0
    0.5930  -12.3540   21.6539 C   0  0  0  0  0  0  0  0  0  0  0  0
    2.2464  -11.8379   21.4324 N   0  0  0  0  0  0  0  0  0  0  0  0
    3.6030  -11.9067   22.6956 C   0  0  0  0  0  0  0  0  0  0  0  0
    5.0389  -10.5820   22.8368 C   0  0  0  0  0  0  0  0  0  0  0  0
    5.9955   -9.9044   21.8710 C   0  0  0  0  0  0  0  0  0  0  0  0
    6.8772   -8.9602   22.3584 C   0  0  0  0  0  0  0  0  0  0  0  0
    6.5919   -8.6744   23.9852 S   0  0  0  0  0  0  0  0  0  0  0  0
    5.3542   -9.8622   24.0104 C   0  0  0  0  0  0  0  0  0  0  0  0
    2.0710  -12.9644   20.4350 C   0  0  0  0  0  0  0  0  0  0  0  0
    0.0054  -13.7199   19.8605 C   0  0  0  0  0  0  0  0  0  0  0  0
   -2.8092  -15.5704   18.7614 C   0  0  0  0  0  0  0  0  0  0  0  0
   -3.7127  -17.1920   18.5168 N   0  0  0  0  0  0  0  0  0  0  0  0
   -5.2037  -17.9592   18.7124 C   0  0  0  0  0  0  0  0  0  0  0  0
   -6.4026  -17.4975   19.2332 C   0  0  0  0  0  0  0  0  0  0  0  0
   -7.5292  -18.1742   19.6472 N   0  0  0  0  0  0  0  0  0  0  0  0
   -7.4580  -19.4964   19.6065 C   0  0  0  0  0  0  0  0  0  0  0  0
   -6.4107  -20.1510   19.1302 N   0  0  0  0  0  0  0  0  0  0  0  0
   -5.3412  -19.3764   18.7246 C   0  0  0  0  0  0  0  0  0  0  0  0
   -1.1672  -17.8378   16.9709 H   0  0  0  0  0  0  0  0  0  0  0  0
   -2.3531  -16.5708   17.1730 H   0  0  0  0  0  0  0  0  0  0  0  0
    1.1482  -13.6307   18.8918 H   0  0  0  0  0  0  0  0  0  0  0  0
    1.0254  -13.8091   21.3480 H   0  0  0  0  0  0  0  0  0  0  0  0
    0.7491  -11.2435   21.4089 H   0  0  0  0  0  0  0  0  0  0  0  0
   -0.0229  -12.4501   22.5298 H   0  0  0  0  0  0  0  0  0  0  0  0
    3.2167  -11.9381   23.7175 H   0  0  0  0  0  0  0  0  0  0  0  0
    4.1037  -12.8570   22.4918 H   0  0  0  0  0  0  0  0  0  0  0  0
    6.0719  -10.0293   20.8143 H   0  0  0  0  0  0  0  0  0  0  0  0
    7.6229   -8.4024   21.8102 H   0  0  0  0  0  0  0  0  0  0  0  0
    4.8156   -9.9357   24.9417 H   0  0  0  0  0  0  0  0  0  0  0  0
    2.8052  -13.6540   20.8919 H   0  0  0  0  0  0  0  0  0  0  0  0
    2.4837  -12.6665   19.4622 H   0  0  0  0  0  0  0  0  0  0  0  0
    0.2909  -14.6598   18.7642 H   0  0  0  0  0  0  0  0  0  0  0  0
   -1.0057  -12.7046   19.8665 H   0  0  0  0  0  0  0  0  0  0  0  0
   -3.6402  -15.1085   19.1695 H   0  0  0  0  0  0  0  0  0  0  0  0
   -2.6826  -15.0633   17.8022 H   0  0  0  0  0  0  0  0  0  0  0  0
   -6.5448  -16.4792   19.4602 H   0  0  0  0  0  0  0  0  0  0  0  0
   -8.3020  -20.0703   19.9667 H   0  0  0  0  0  0  0  0  0  0  0  0
   -4.5309  -20.0603   18.5071 H   0  0  0  0  0  0  0  0  0  0  0  0
  1  2  2  0
  2  3  1  0
  3  4  1  0
  4  5  1  0
  5  6  1  0
  6  7  1  0
  7  8  1  0
  8  9  1  0
  9 10  1  0
 10 11  1  0
 11 12  2  0
 12 13  1  0
 13 14  1  0
  8 15  1  0
 15 16  1  0
  5 17  1  0
 17 18  1  0
 18 19  1  0
 19 20  2  0
 20 21  1  0
 21 22  2  0
 22 23  1  0
 23 24  2  0
 18  2  1  0
 24 19  1  0
 16  5  1  0
 14 10  2  0
  3 25  1  0
  3 26  1  0
  6 27  1  0
  6 28  1  0
  7 29  1  0
  7 30  1  0
  9 31  1  0
  9 32  1  0
 11 33  1  0
 12 34  1  0
 14 35  1  0
 15 36  1  0
 15 37  1  0
 16 38  1  0
 16 39  1  0
 17 40  1  0
 17 41  1  0
 20 42  1  0
 22 43  1  0
 24 44  1  0
M  END
>  <Energy>  (718) 
1787.1599019291032

>  <compound_id>  (718) 
17495

>  <target_id>  (718) 
1

>  <reference_id>  (718) 
54

>  <inspiration_ids>  (718) 
[66, 54]

>  <energy_score>  (718) 
1629.3350814329524

>  <distance_score>  (718) 
12.855287004963111

>  <path>  (718) 
/opt/xchem-fragalysis-2/maxwin/BulkDock/SCRATCH/511014/C17495-P54/C17495-P54.minimised.mol

>  <scratch_subdir>  (718) 
/opt/xchem-fragalysis-2/maxwin/BulkDock/SCRATCH/511014/C17495-P54

>  <fragmenstein_runtime>  (718) 
23.97498059272766

>  <fragmenstein_outcome>  (718) 
too moved

>  <fragmenstein_mode>  (718) 
expansion

>  <fragmenstein_error>  (718) 


$$$$
C17496-P66
     RDKit          3D

 28 29  0  0  0  0  0  0  0  0999 V2000
    7.3686  -10.9495   21.5723 C   0  0  0  0  0  0  0  0  0  0  0  0
    6.5480  -11.4283   22.7221 C   0  0  0  0  0  0  0  0  0  0  0  0
    5.3632  -12.1372   22.7054 C   0  0  0  0  0  0  0  0  0  0  0  0
    4.8268  -12.4600   24.0231 C   0  0  0  0  0  0  0  0  0  0  0  0
    3.4732  -13.1695   24.1914 C   0  0  0  0  0  0  0  0  0  0  0  0
    2.8447  -13.8576   25.8649 S   0  0  0  0  0  0  0  0  0  0  0  0
    2.1451  -12.5980   26.6941 O   0  0  0  0  0  0  0  0  0  0  0  0
    1.4621  -15.0494   25.2539 C   0  0  0  0  0  0  0  0  0  0  0  0
    0.2907  -15.5478   26.0985 C   0  0  0  0  0  0  0  0  0  0  0  0
   -0.5424  -14.7661   26.8713 C   0  0  0  0  0  0  0  0  0  0  0  0
   -1.6860  -15.2087   27.4690 N   0  0  0  0  0  0  0  0  0  0  0  0
   -2.0099  -16.4966   27.2787 C   0  0  0  0  0  0  0  0  0  0  0  0
   -1.3114  -17.3586   26.5332 N   0  0  0  0  0  0  0  0  0  0  0  0
   -0.1856  -16.8561   25.9628 C   0  0  0  0  0  0  0  0  0  0  0  0
    5.6962  -11.9679   24.9804 C   0  0  0  0  0  0  0  0  0  0  0  0
    7.0480  -11.1248   24.3232 S   0  0  0  0  0  0  0  0  0  0  0  0
    8.3515  -11.4320   21.5730 H   0  0  0  0  0  0  0  0  0  0  0  0
    6.8817  -11.1838   20.6199 H   0  0  0  0  0  0  0  0  0  0  0  0
    7.5125   -9.8651   21.6191 H   0  0  0  0  0  0  0  0  0  0  0  0
    4.8758  -12.4190   21.7808 H   0  0  0  0  0  0  0  0  0  0  0  0
    3.4769  -14.0439   23.5347 H   0  0  0  0  0  0  0  0  0  0  0  0
    2.7000  -12.4626   23.8930 H   0  0  0  0  0  0  0  0  0  0  0  0
    1.0772  -14.6433   24.3200 H   0  0  0  0  0  0  0  0  0  0  0  0
    2.0747  -15.9260   25.0292 H   0  0  0  0  0  0  0  0  0  0  0  0
   -0.3313  -13.7092   27.0264 H   0  0  0  0  0  0  0  0  0  0  0  0
   -2.9107  -16.8612   27.7592 H   0  0  0  0  0  0  0  0  0  0  0  0
    0.3398  -17.5759   25.3361 H   0  0  0  0  0  0  0  0  0  0  0  0
    5.5925  -12.0228   26.0563 H   0  0  0  0  0  0  0  0  0  0  0  0
  1  2  1  0
  2  3  2  0
  3  4  1  0
  4  5  1  0
  5  6  1  0
  6  7  1  0
  6  8  1  0
  8  9  1  0
  9 10  2  0
 10 11  1  0
 11 12  2  0
 12 13  1  0
 13 14  2  0
  4 15  2  0
 15 16  1  0
 16  2  1  0
 14  9  1  0
  1 17  1  0
  1 18  1  0
  1 19  1  0
  3 20  1  0
  5 21  1  0
  5 22  1  0
  8 23  1  0
  8 24  1  0
 10 25  1  0
 12 26  1  0
 14 27  1  0
 15 28  1  0
M  CHG  2   6   1   7  -1
M  END
>  <Energy>  (719) 
35.449246475912361

>  <compound_id>  (719) 
17496

>  <target_id>  (719) 
1

>  <reference_id>  (719) 
66

>  <inspiration_ids>  (719) 
[66, 54]

>  <energy_score>  (719) 
-26.573620274371365

>  <distance_score>  (719) 
14.228449837023074

>  <path>  (719) 
/opt/xchem-fragalysis-2/maxwin/BulkDock/SCRATCH/511014/C17496-P66/C17496-P66.minimised.mol

>  <scratch_subdir>  (719) 
/opt/xchem-fragalysis-2/maxwin/BulkDock/SCRATCH/511014/C17496-P66

>  <fragmenstein_runtime>  (719) 
11.812555313110352

>  <fragmenstein_outcome>  (719) 
too moved

>  <fragmenstein_mode>  (719) 
expansion

>  <fragmenstein_error>  (719) 


$$$$
C17496-P54
     RDKit          3D

 28 29  0  0  0  0  0  0  0  0999 V2000
    7.7212  -15.9694   16.0469 C   0  0  0  0  0  0  0  0  0  0  0  0
    6.2931  -15.6446   15.7690 C   0  0  0  0  0  0  0  0  0  0  0  0
    5.2094  -16.5103   15.7164 C   0  0  0  0  0  0  0  0  0  0  0  0
    3.9651  -15.8679   15.4143 C   0  0  0  0  0  0  0  0  0  0  0  0
    2.5469  -16.4545   15.2741 C   0  0  0  0  0  0  0  0  0  0  0  0
    2.0478  -18.2913   15.3399 S   0  0  0  0  0  0  0  0  0  0  0  0
    0.8537  -18.5274   14.2086 O   0  0  0  0  0  0  0  0  0  0  0  0
    1.3945  -19.0329   16.9692 C   0  0  0  0  0  0  0  0  0  0  0  0
   -0.0203  -19.0487   17.5828 C   0  0  0  0  0  0  0  0  0  0  0  0
   -0.1953  -19.1972   18.9703 C   0  0  0  0  0  0  0  0  0  0  0  0
   -1.3713  -19.3832   19.6315 N   0  0  0  0  0  0  0  0  0  0  0  0
   -2.4486  -19.4640   18.8503 C   0  0  0  0  0  0  0  0  0  0  0  0
   -2.4327  -19.3725   17.5123 N   0  0  0  0  0  0  0  0  0  0  0  0
   -1.2185  -19.1774   16.9123 C   0  0  0  0  0  0  0  0  0  0  0  0
    4.2088  -14.5016   15.2349 C   0  0  0  0  0  0  0  0  0  0  0  0
    5.8396  -14.0310   15.4523 S   0  0  0  0  0  0  0  0  0  0  0  0
    8.0772  -15.4305   16.9312 H   0  0  0  0  0  0  0  0  0  0  0  0
    8.3538  -15.7009   15.1944 H   0  0  0  0  0  0  0  0  0  0  0  0
    7.8489  -17.0407   16.2344 H   0  0  0  0  0  0  0  0  0  0  0  0
    5.3150  -17.5759   15.8840 H   0  0  0  0  0  0  0  0  0  0  0  0
    2.2846  -16.2276   14.2293 H   0  0  0  0  0  0  0  0  0  0  0  0
    1.8598  -15.8583   15.8547 H   0  0  0  0  0  0  0  0  0  0  0  0
    2.1670  -18.8599   17.7214 H   0  0  0  0  0  0  0  0  0  0  0  0
    1.5411  -20.0983   16.7308 H   0  0  0  0  0  0  0  0  0  0  0  0
    0.6659  -19.1862   19.6391 H   0  0  0  0  0  0  0  0  0  0  0  0
   -3.4089  -19.6191   19.3268 H   0  0  0  0  0  0  0  0  0  0  0  0
   -1.2574  -19.1539   15.8241 H   0  0  0  0  0  0  0  0  0  0  0  0
    3.4819  -13.7330   15.0068 H   0  0  0  0  0  0  0  0  0  0  0  0
  1  2  1  0
  2  3  2  0
  3  4  1  0
  4  5  1  0
  5  6  1  0
  6  7  1  0
  6  8  1  0
  8  9  1  0
  9 10  2  0
 10 11  1  0
 11 12  2  0
 12 13  1  0
 13 14  2  0
  4 15  2  0
 15 16  1  0
 16  2  1  0
 14  9  1  0
  1 17  1  0
  1 18  1  0
  1 19  1  0
  3 20  1  0
  5 21  1  0
  5 22  1  0
  8 23  1  0
  8 24  1  0
 10 25  1  0
 12 26  1  0
 14 27  1  0
 15 28  1  0
M  CHG  2   6   1   7  -1
M  END
>  <Energy>  (720) 
64.455826004108246

>  <compound_id>  (720) 
17496

>  <target_id>  (720) 
1

>  <reference_id>  (720) 
54

>  <inspiration_ids>  (720) 
[66, 54]

>  <energy_score>  (720) 
2.4329592538222755

>  <distance_score>  (720) 
15.782868905801452

>  <path>  (720) 
/opt/xchem-fragalysis-2/maxwin/BulkDock/SCRATCH/511014/C17496-P54/C17496-P54.minimised.mol

>  <scratch_subdir>  (720) 
/opt/xchem-fragalysis-2/maxwin/BulkDock/SCRATCH/511014/C17496-P54

>  <fragmenstein_runtime>  (720) 
8.677475929260254

>  <fragmenstein_outcome>  (720) 
too moved

>  <fragmenstein_mode>  (720) 
expansion

>  <fragmenstein_error>  (720) 


$$$$
C17497-P66
     RDKit          3D

 25 26  0  0  0  0  0  0  0  0999 V2000
    2.9657  -16.1665   16.6173 O   0  0  0  0  0  0  0  0  0  0  0  0
    2.7373  -15.2962   18.0419 S   0  0  0  0  0  0  0  0  0  0  0  0
    0.8005  -13.9323   17.7752 C   0  0  0  0  0  0  0  0  0  0  0  0
   -1.1431  -14.4937   17.9343 C   0  0  0  0  0  0  0  0  0  0  0  0
   -1.6420  -15.6036   18.9110 C   0  0  0  0  0  0  0  0  0  0  0  0
   -2.4346  -16.7516   18.6684 N   0  0  0  0  0  0  0  0  0  0  0  0
   -2.9186  -16.8581   17.4193 C   0  0  0  0  0  0  0  0  0  0  0  0
   -2.7300  -15.9112   16.4593 N   0  0  0  0  0  0  0  0  0  0  0  0
   -1.8461  -14.8206   16.7216 C   0  0  0  0  0  0  0  0  0  0  0  0
    4.7378  -14.1846   18.0286 C   0  0  0  0  0  0  0  0  0  0  0  0
    5.7051  -13.8510   16.8354 C   0  0  0  0  0  0  0  0  0  0  0  0
    6.6347  -14.7550   16.3401 C   0  0  0  0  0  0  0  0  0  0  0  0
    7.8440  -14.0595   15.3421 S   0  0  0  0  0  0  0  0  0  0  0  0
    7.1427  -12.5200   15.4670 C   0  0  0  0  0  0  0  0  0  0  0  0
    6.0221  -12.5328   16.2695 C   0  0  0  0  0  0  0  0  0  0  0  0
    5.1551  -11.0844   16.5226 Cl  0  0  0  0  0  0  0  0  0  0  0  0
    1.0981  -13.7956   16.7464 H   0  0  0  0  0  0  0  0  0  0  0  0
    1.1007  -13.3319   18.5184 H   0  0  0  0  0  0  0  0  0  0  0  0
   -1.2389  -15.8107   19.8873 H   0  0  0  0  0  0  0  0  0  0  0  0
   -3.5235  -17.7196   17.1707 H   0  0  0  0  0  0  0  0  0  0  0  0
   -1.4263  -14.5203   15.7773 H   0  0  0  0  0  0  0  0  0  0  0  0
    5.2985  -14.9645   18.5521 H   0  0  0  0  0  0  0  0  0  0  0  0
    4.5545  -13.2735   18.6049 H   0  0  0  0  0  0  0  0  0  0  0  0
    6.6958  -15.8109   16.5707 H   0  0  0  0  0  0  0  0  0  0  0  0
    7.5781  -11.6703   14.9567 H   0  0  0  0  0  0  0  0  0  0  0  0
  1  2  1  0
  2  3  1  0
  3  4  1  0
  4  5  2  0
  5  6  1  0
  6  7  2  0
  7  8  1  0
  8  9  2  0
  2 10  1  0
 10 11  1  0
 11 12  2  0
 12 13  1  0
 13 14  1  0
 14 15  2  0
 15 16  1  0
  9  4  1  0
 15 11  1  0
  3 17  1  0
  3 18  1  0
  5 19  1  0
  7 20  1  0
  9 21  1  0
 10 22  1  0
 10 23  1  0
 12 24  1  0
 14 25  1  0
M  CHG  2   1  -1   2   1
M  END
>  <Energy>  (721) 
261.81943398487226

>  <compound_id>  (721) 
17497

>  <target_id>  (721) 
1

>  <reference_id>  (721) 
66

>  <inspiration_ids>  (721) 
[66, 54]

>  <energy_score>  (721) 
217.44647616707823

>  <distance_score>  (721) 
15.626410556623679

>  <path>  (721) 
/opt/xchem-fragalysis-2/maxwin/BulkDock/SCRATCH/511014/C17497-P66/C17497-P66.minimised.mol

>  <scratch_subdir>  (721) 
/opt/xchem-fragalysis-2/maxwin/BulkDock/SCRATCH/511014/C17497-P66

>  <fragmenstein_runtime>  (721) 
14.811717510223389

>  <fragmenstein_outcome>  (721) 
too moved

>  <fragmenstein_mode>  (721) 
expansion

>  <fragmenstein_error>  (721) 


$$$$
C17497-P54
     RDKit          3D

 25 26  0  0  0  0  0  0  0  0999 V2000
    1.1527  -11.5942   25.1722 O   0  0  0  0  0  0  0  0  0  0  0  0
    0.6789  -11.3271   23.5584 S   0  0  0  0  0  0  0  0  0  0  0  0
   -1.6464  -12.2167   23.2875 C   0  0  0  0  0  0  0  0  0  0  0  0
   -2.6383  -13.0638   24.7072 C   0  0  0  0  0  0  0  0  0  0  0  0
   -3.3750  -14.2941   24.4712 C   0  0  0  0  0  0  0  0  0  0  0  0
   -4.0194  -15.1044   25.3547 N   0  0  0  0  0  0  0  0  0  0  0  0
   -3.9047  -14.7306   26.6238 C   0  0  0  0  0  0  0  0  0  0  0  0
   -3.1649  -13.6980   27.0444 N   0  0  0  0  0  0  0  0  0  0  0  0
   -2.5194  -12.9356   26.0950 C   0  0  0  0  0  0  0  0  0  0  0  0
    2.6319  -11.7231   22.1969 C   0  0  0  0  0  0  0  0  0  0  0  0
    4.1874  -11.8838   23.2060 C   0  0  0  0  0  0  0  0  0  0  0  0
    4.5540  -12.9993   23.9569 C   0  0  0  0  0  0  0  0  0  0  0  0
    6.0505  -12.9548   24.7853 S   0  0  0  0  0  0  0  0  0  0  0  0
    6.4500  -11.4737   24.1114 C   0  0  0  0  0  0  0  0  0  0  0  0
    5.4888  -11.0225   23.2356 C   0  0  0  0  0  0  0  0  0  0  0  0
    6.0282   -9.6906   22.2814 Cl  0  0  0  0  0  0  0  0  0  0  0  0
   -2.3151  -11.4054   23.0509 H   0  0  0  0  0  0  0  0  0  0  0  0
   -1.4456  -12.9516   22.4997 H   0  0  0  0  0  0  0  0  0  0  0  0
   -3.4480  -14.6859   23.4601 H   0  0  0  0  0  0  0  0  0  0  0  0
   -4.4228  -15.3153   27.3746 H   0  0  0  0  0  0  0  0  0  0  0  0
   -1.7927  -12.2893   26.5702 H   0  0  0  0  0  0  0  0  0  0  0  0
    2.4771  -10.9999   21.4086 H   0  0  0  0  0  0  0  0  0  0  0  0
    2.5786  -12.6292   21.5533 H   0  0  0  0  0  0  0  0  0  0  0  0
    4.0443  -13.9285   24.1320 H   0  0  0  0  0  0  0  0  0  0  0  0
    7.4125  -11.0288   24.3248 H   0  0  0  0  0  0  0  0  0  0  0  0
  1  2  1  0
  2  3  1  0
  3  4  1  0
  4  5  2  0
  5  6  1  0
  6  7  2  0
  7  8  1  0
  8  9  2  0
  2 10  1  0
 10 11  1  0
 11 12  2  0
 12 13  1  0
 13 14  1  0
 14 15  2  0
 15 16  1  0
  9  4  1  0
 15 11  1  0
  3 17  1  0
  3 18  1  0
  5 19  1  0
  7 20  1  0
  9 21  1  0
 10 22  1  0
 10 23  1  0
 12 24  1  0
 14 25  1  0
M  CHG  2   1  -1   2   1
M  END
>  <Energy>  (722) 
316.75205163894384

>  <compound_id>  (722) 
17497

>  <target_id>  (722) 
1

>  <reference_id>  (722) 
54

>  <inspiration_ids>  (722) 
[66, 54]

>  <energy_score>  (722) 
272.37909382114117

>  <distance_score>  (722) 
14.359739385996908

>  <path>  (722) 
/opt/xchem-fragalysis-2/maxwin/BulkDock/SCRATCH/511014/C17497-P54/C17497-P54.minimised.mol

>  <scratch_subdir>  (722) 
/opt/xchem-fragalysis-2/maxwin/BulkDock/SCRATCH/511014/C17497-P54

>  <fragmenstein_runtime>  (722) 
6.711888074874878

>  <fragmenstein_outcome>  (722) 
too moved

>  <fragmenstein_mode>  (722) 
expansion

>  <fragmenstein_error>  (722) 


$$$$
C17498-P66
     RDKit          3D

 36 38  0  0  0  0  0  0  0  0999 V2000
   -1.4604  -14.7481   11.0492 C   0  0  0  0  0  0  0  0  0  0  0  0
   -0.5585  -14.9819   12.2663 C   0  0  0  0  0  0  0  0  0  0  0  0
   -0.6858  -16.4950   12.6969 C   0  0  0  0  0  0  0  0  0  0  0  0
   -1.8230  -16.8966   13.6136 N   0  0  0  0  0  0  0  0  0  0  0  0
   -2.6793  -18.0775   13.6132 C   0  0  0  0  0  0  0  0  0  0  0  0
   -2.7515  -18.9901   12.8372 O   0  0  0  0  0  0  0  0  0  0  0  0
   -3.5787  -18.2841   14.8370 C   0  0  0  0  0  0  0  0  0  0  0  0
   -4.4008  -17.3510   15.4391 C   0  0  0  0  0  0  0  0  0  0  0  0
   -5.1601  -17.5742   16.5597 N   0  0  0  0  0  0  0  0  0  0  0  0
   -5.0979  -18.8074   17.0907 C   0  0  0  0  0  0  0  0  0  0  0  0
   -4.3614  -19.8136   16.6051 N   0  0  0  0  0  0  0  0  0  0  0  0
   -3.6323  -19.5207   15.4817 C   0  0  0  0  0  0  0  0  0  0  0  0
    0.7863  -14.4133   11.9802 N   0  0  0  0  0  0  0  0  0  0  0  0
    1.1704  -13.0728   12.0250 C   0  0  0  0  0  0  0  0  0  0  0  0
    2.5478  -13.0605   11.8697 C   0  0  0  0  0  0  0  0  0  0  0  0
    3.5602  -11.9647   11.9742 C   0  0  0  0  0  0  0  0  0  0  0  0
    3.2768  -10.5702   11.7998 C   0  0  0  0  0  0  0  0  0  0  0  0
    4.3851   -9.7620   11.9775 C   0  0  0  0  0  0  0  0  0  0  0  0
    5.7919  -10.6744   12.2970 S   0  0  0  0  0  0  0  0  0  0  0  0
    4.9072  -12.1444   12.2417 C   0  0  0  0  0  0  0  0  0  0  0  0
    2.9321  -14.3615   11.6072 N   0  0  0  0  0  0  0  0  0  0  0  0
    1.8518  -15.1556   11.6089 N   0  0  0  0  0  0  0  0  0  0  0  0
   -2.4973  -15.0182   11.2751 H   0  0  0  0  0  0  0  0  0  0  0  0
   -1.4466  -13.7010   10.7291 H   0  0  0  0  0  0  0  0  0  0  0  0
   -1.1296  -15.3493   10.1946 H   0  0  0  0  0  0  0  0  0  0  0  0
   -0.9222  -14.3778   13.1039 H   0  0  0  0  0  0  0  0  0  0  0  0
    0.2220  -16.8006   13.2251 H   0  0  0  0  0  0  0  0  0  0  0  0
   -0.7516  -17.1411   11.8137 H   0  0  0  0  0  0  0  0  0  0  0  0
   -1.9758  -16.3746   14.4772 H   0  0  0  0  0  0  0  0  0  0  0  0
   -4.4759  -16.3432   15.0426 H   0  0  0  0  0  0  0  0  0  0  0  0
   -5.6923  -19.0014   17.9761 H   0  0  0  0  0  0  0  0  0  0  0  0
   -3.0451  -20.3548   15.1014 H   0  0  0  0  0  0  0  0  0  0  0  0
    0.4465  -12.3044   12.2283 H   0  0  0  0  0  0  0  0  0  0  0  0
    2.2999  -10.1726   11.5550 H   0  0  0  0  0  0  0  0  0  0  0  0
    4.4358   -8.6837   11.9165 H   0  0  0  0  0  0  0  0  0  0  0  0
    5.4221  -13.0803   12.4079 H   0  0  0  0  0  0  0  0  0  0  0  0
  1  2  1  0
  2  3  1  0
  3  4  1  0
  4  5  1  0
  5  6  2  0
  5  7  1  0
  7  8  2  0
  8  9  1  0
  9 10  2  0
 10 11  1  0
 11 12  2  0
  2 13  1  0
 13 14  1  0
 14 15  2  0
 15 16  1  0
 16 17  1  0
 17 18  2  0
 18 19  1  0
 19 20  1  0
 15 21  1  0
 21 22  2  0
 12  7  1  0
 22 13  1  0
 20 16  2  0
  1 23  1  0
  1 24  1  0
  1 25  1  0
  2 26  1  0
  3 27  1  0
  3 28  1  0
  4 29  1  0
  8 30  1  0
 10 31  1  0
 12 32  1  0
 14 33  1  0
 17 34  1  0
 18 35  1  0
 20 36  1  0
M  END
>  <Energy>  (723) 
30.393172067020895

>  <compound_id>  (723) 
17498

>  <target_id>  (723) 
1

>  <reference_id>  (723) 
66

>  <inspiration_ids>  (723) 
[66, 54]

>  <energy_score>  (723) 
-17.618300470032636

>  <distance_score>  (723) 
14.807831766063869

>  <path>  (723) 
/opt/xchem-fragalysis-2/maxwin/BulkDock/SCRATCH/511014/C17498-P66/C17498-P66.minimised.mol

>  <scratch_subdir>  (723) 
/opt/xchem-fragalysis-2/maxwin/BulkDock/SCRATCH/511014/C17498-P66

>  <fragmenstein_runtime>  (723) 
37.07576274871826

>  <fragmenstein_outcome>  (723) 
too moved

>  <fragmenstein_mode>  (723) 
expansion

>  <fragmenstein_error>  (723) 


$$$$
C17498-P54
     RDKit          3D

 36 38  0  0  0  0  0  0  0  0999 V2000
    0.5506  -11.3197   23.4362 C   0  0  0  0  0  0  0  0  0  0  0  0
   -0.1072  -12.5647   22.3205 C   0  0  0  0  0  0  0  0  0  0  0  0
   -1.9020  -13.5517   22.7093 C   0  0  0  0  0  0  0  0  0  0  0  0
   -2.6569  -14.9665   23.9055 N   0  0  0  0  0  0  0  0  0  0  0  0
   -1.8771  -15.9697   25.1779 C   0  0  0  0  0  0  0  0  0  0  0  0
   -0.6985  -15.9501   25.3996 O   0  0  0  0  0  0  0  0  0  0  0  0
   -2.6190  -16.9280   26.2950 C   0  0  0  0  0  0  0  0  0  0  0  0
   -1.7748  -17.8605   26.9223 C   0  0  0  0  0  0  0  0  0  0  0  0
   -2.0599  -18.7876   27.8814 N   0  0  0  0  0  0  0  0  0  0  0  0
   -3.2709  -18.6935   28.3902 C   0  0  0  0  0  0  0  0  0  0  0  0
   -4.1249  -17.7328   28.0682 N   0  0  0  0  0  0  0  0  0  0  0  0
   -3.7684  -16.8791   27.0725 C   0  0  0  0  0  0  0  0  0  0  0  0
    1.4917  -12.1174   21.3339 N   0  0  0  0  0  0  0  0  0  0  0  0
    2.0648  -10.9114   20.4597 C   0  0  0  0  0  0  0  0  0  0  0  0
    2.6286  -11.4401   19.1845 C   0  0  0  0  0  0  0  0  0  0  0  0
    3.8930  -11.2459   17.8627 C   0  0  0  0  0  0  0  0  0  0  0  0
    3.9517  -12.0148   16.6114 C   0  0  0  0  0  0  0  0  0  0  0  0
    5.0338  -11.8169   15.7725 C   0  0  0  0  0  0  0  0  0  0  0  0
    6.1139  -10.7032   16.4203 S   0  0  0  0  0  0  0  0  0  0  0  0
    5.0785  -10.4838   17.7771 C   0  0  0  0  0  0  0  0  0  0  0  0
    2.4849  -12.9243   19.6652 N   0  0  0  0  0  0  0  0  0  0  0  0
    2.3683  -13.0454   20.9786 N   0  0  0  0  0  0  0  0  0  0  0  0
    0.0887  -10.3877   23.7512 H   0  0  0  0  0  0  0  0  0  0  0  0
    1.0970  -10.7926   22.7083 H   0  0  0  0  0  0  0  0  0  0  0  0
    1.2161  -11.7058   24.1946 H   0  0  0  0  0  0  0  0  0  0  0  0
   -0.6111  -12.4716   21.3492 H   0  0  0  0  0  0  0  0  0  0  0  0
   -2.4016  -12.7430   23.2764 H   0  0  0  0  0  0  0  0  0  0  0  0
   -2.3230  -13.8287   21.7935 H   0  0  0  0  0  0  0  0  0  0  0  0
   -3.6032  -15.0796   23.9554 H   0  0  0  0  0  0  0  0  0  0  0  0
   -0.6994  -17.8475   26.7471 H   0  0  0  0  0  0  0  0  0  0  0  0
   -3.5582  -19.4100   29.1469 H   0  0  0  0  0  0  0  0  0  0  0  0
   -4.4776  -16.0750   26.9822 H   0  0  0  0  0  0  0  0  0  0  0  0
    1.3515  -10.1725   20.6201 H   0  0  0  0  0  0  0  0  0  0  0  0
    3.2148  -12.7323   16.3137 H   0  0  0  0  0  0  0  0  0  0  0  0
    5.2210  -12.3063   14.8266 H   0  0  0  0  0  0  0  0  0  0  0  0
    5.4981   -9.7993   18.4886 H   0  0  0  0  0  0  0  0  0  0  0  0
  1  2  1  0
  2  3  1  0
  3  4  1  0
  4  5  1  0
  5  6  2  0
  5  7  1  0
  7  8  2  0
  8  9  1  0
  9 10  2  0
 10 11  1  0
 11 12  2  0
  2 13  1  0
 13 14  1  0
 14 15  2  0
 15 16  1  0
 16 17  1  0
 17 18  2  0
 18 19  1  0
 19 20  1  0
 15 21  1  0
 21 22  2  0
 12  7  1  0
 22 13  1  0
 20 16  2  0
  1 23  1  0
  1 24  1  0
  1 25  1  0
  2 26  1  0
  3 27  1  0
  3 28  1  0
  4 29  1  0
  8 30  1  0
 10 31  1  0
 12 32  1  0
 14 33  1  0
 17 34  1  0
 18 35  1  0
 20 36  1  0
M  END
>  <Energy>  (724) 
583.94936209237187

>  <compound_id>  (724) 
17498

>  <target_id>  (724) 
1

>  <reference_id>  (724) 
54

>  <inspiration_ids>  (724) 
[66, 54]

>  <energy_score>  (724) 
535.9378895553211

>  <distance_score>  (724) 
11.610910069809362

>  <path>  (724) 
/opt/xchem-fragalysis-2/maxwin/BulkDock/SCRATCH/511014/C17498-P54/C17498-P54.minimised.mol

>  <scratch_subdir>  (724) 
/opt/xchem-fragalysis-2/maxwin/BulkDock/SCRATCH/511014/C17498-P54

>  <fragmenstein_runtime>  (724) 
18.965221166610718

>  <fragmenstein_outcome>  (724) 
too moved

>  <fragmenstein_mode>  (724) 
expansion

>  <fragmenstein_error>  (724) 


$$$$
C17499-P66
     RDKit          3D

 36 38  0  0  0  0  0  0  0  0999 V2000
    0.8706  -12.9539   11.8114 C   0  0  0  0  0  0  0  0  0  0  0  0
    1.7962  -13.5537   12.8752 C   0  0  0  0  0  0  0  0  0  0  0  0
    1.3984  -15.0658   13.1023 C   0  0  0  0  0  0  0  0  0  0  0  0
    0.1504  -15.3603   13.8946 N   0  0  0  0  0  0  0  0  0  0  0  0
   -0.7701  -16.4968   13.8453 C   0  0  0  0  0  0  0  0  0  0  0  0
   -0.8059  -17.4415   13.1052 O   0  0  0  0  0  0  0  0  0  0  0  0
   -1.8443  -16.6219   14.9382 C   0  0  0  0  0  0  0  0  0  0  0  0
   -2.4874  -15.6089   15.6234 C   0  0  0  0  0  0  0  0  0  0  0  0
   -3.3976  -15.7849   16.6394 N   0  0  0  0  0  0  0  0  0  0  0  0
   -3.6875  -17.0561   16.9719 C   0  0  0  0  0  0  0  0  0  0  0  0
   -3.1706  -18.1362   16.3777 N   0  0  0  0  0  0  0  0  0  0  0  0
   -2.2738  -17.8851   15.3708 C   0  0  0  0  0  0  0  0  0  0  0  0
    3.2043  -13.2064   12.5481 N   0  0  0  0  0  0  0  0  0  0  0  0
    3.9118  -12.0779   12.9484 C   0  0  0  0  0  0  0  0  0  0  0  0
    4.9277  -11.9373   12.0300 C   0  0  0  0  0  0  0  0  0  0  0  0
    5.7816  -10.6374   11.7404 C   0  0  0  0  0  0  0  0  0  0  0  0
    5.6230   -9.4330   12.3891 C   0  0  0  0  0  0  0  0  0  0  0  0
    6.3200   -8.3702   11.7519 C   0  0  0  0  0  0  0  0  0  0  0  0
    7.0748   -8.8072   10.6894 C   0  0  0  0  0  0  0  0  0  0  0  0
    6.9196  -10.5027   10.4701 S   0  0  0  0  0  0  0  0  0  0  0  0
    4.9744  -13.0886   11.2888 N   0  0  0  0  0  0  0  0  0  0  0  0
    3.9202  -13.8560   11.6078 N   0  0  0  0  0  0  0  0  0  0  0  0
    0.9867  -13.4708   10.8522 H   0  0  0  0  0  0  0  0  0  0  0  0
    1.0897  -11.8962   11.6364 H   0  0  0  0  0  0  0  0  0  0  0  0
   -0.1780  -13.0341   12.1162 H   0  0  0  0  0  0  0  0  0  0  0  0
    1.6345  -13.0248   13.8130 H   0  0  0  0  0  0  0  0  0  0  0  0
    2.1958  -15.5915   13.6330 H   0  0  0  0  0  0  0  0  0  0  0  0
    1.2903  -15.5797   12.1399 H   0  0  0  0  0  0  0  0  0  0  0  0
   -0.0691  -14.7871   14.7124 H   0  0  0  0  0  0  0  0  0  0  0  0
   -2.2801  -14.5702   15.3928 H   0  0  0  0  0  0  0  0  0  0  0  0
   -4.3964  -17.2164   17.7757 H   0  0  0  0  0  0  0  0  0  0  0  0
   -1.8661  -18.7857   14.9124 H   0  0  0  0  0  0  0  0  0  0  0  0
    3.5585  -11.4325   13.7259 H   0  0  0  0  0  0  0  0  0  0  0  0
    4.9618   -9.2970   13.2277 H   0  0  0  0  0  0  0  0  0  0  0  0
    6.2518   -7.3449   12.0662 H   0  0  0  0  0  0  0  0  0  0  0  0
    7.7081   -8.2237   10.0337 H   0  0  0  0  0  0  0  0  0  0  0  0
  1  2  1  0
  2  3  1  0
  3  4  1  0
  4  5  1  0
  5  6  2  0
  5  7  1  0
  7  8  2  0
  8  9  1  0
  9 10  2  0
 10 11  1  0
 11 12  2  0
  2 13  1  0
 13 14  1  0
 14 15  2  0
 15 16  1  0
 16 17  2  0
 17 18  1  0
 18 19  2  0
 19 20  1  0
 15 21  1  0
 21 22  2  0
 12  7  1  0
 22 13  1  0
 20 16  1  0
  1 23  1  0
  1 24  1  0
  1 25  1  0
  2 26  1  0
  3 27  1  0
  3 28  1  0
  4 29  1  0
  8 30  1  0
 10 31  1  0
 12 32  1  0
 14 33  1  0
 17 34  1  0
 18 35  1  0
 19 36  1  0
M  END
>  <Energy>  (725) 
36.612609193890563

>  <compound_id>  (725) 
17499

>  <target_id>  (725) 
1

>  <reference_id>  (725) 
66

>  <inspiration_ids>  (725) 
[66, 54]

>  <energy_score>  (725) 
-9.733252582043065

>  <distance_score>  (725) 
14.984795059425364

>  <path>  (725) 
/opt/xchem-fragalysis-2/maxwin/BulkDock/SCRATCH/511014/C17499-P66/C17499-P66.minimised.mol

>  <scratch_subdir>  (725) 
/opt/xchem-fragalysis-2/maxwin/BulkDock/SCRATCH/511014/C17499-P66

>  <fragmenstein_runtime>  (725) 
17.992582082748413

>  <fragmenstein_outcome>  (725) 
too moved

>  <fragmenstein_mode>  (725) 
expansion

>  <fragmenstein_error>  (725) 


$$$$
C17499-P54
     RDKit          3D

 36 38  0  0  0  0  0  0  0  0999 V2000
    4.7822  -19.6564   25.0075 C   0  0  0  0  0  0  0  0  0  0  0  0
    3.9926  -19.7277   23.6887 C   0  0  0  0  0  0  0  0  0  0  0  0
    2.9624  -20.9163   23.6404 C   0  0  0  0  0  0  0  0  0  0  0  0
    1.6029  -20.7697   24.1701 N   0  0  0  0  0  0  0  0  0  0  0  0
    0.9745  -21.3432   25.3356 C   0  0  0  0  0  0  0  0  0  0  0  0
    1.4269  -22.0230   26.2124 O   0  0  0  0  0  0  0  0  0  0  0  0
   -0.5190  -21.1560   25.4474 C   0  0  0  0  0  0  0  0  0  0  0  0
   -1.1359  -21.0913   26.6912 C   0  0  0  0  0  0  0  0  0  0  0  0
   -2.4793  -21.0087   26.9007 N   0  0  0  0  0  0  0  0  0  0  0  0
   -3.2324  -21.0236   25.7926 C   0  0  0  0  0  0  0  0  0  0  0  0
   -2.7674  -21.1234   24.5390 N   0  0  0  0  0  0  0  0  0  0  0  0
   -1.4153  -21.1953   24.3987 C   0  0  0  0  0  0  0  0  0  0  0  0
    3.4913  -18.4831   23.0756 N   0  0  0  0  0  0  0  0  0  0  0  0
    3.4174  -17.0623   23.5128 C   0  0  0  0  0  0  0  0  0  0  0  0
    3.1048  -16.1603   22.4562 C   0  0  0  0  0  0  0  0  0  0  0  0
    3.8081  -14.2877   21.7805 C   0  0  0  0  0  0  0  0  0  0  0  0
    4.0832  -13.1491   22.6365 C   0  0  0  0  0  0  0  0  0  0  0  0
    3.4373  -11.9473   22.7106 C   0  0  0  0  0  0  0  0  0  0  0  0
    2.5751  -11.7187   21.6685 C   0  0  0  0  0  0  0  0  0  0  0  0
    2.5507  -13.1120   20.8473 S   0  0  0  0  0  0  0  0  0  0  0  0
    3.2627  -17.4343   21.3327 N   0  0  0  0  0  0  0  0  0  0  0  0
    3.2464  -18.6405   21.7991 N   0  0  0  0  0  0  0  0  0  0  0  0
    5.4572  -20.5176   25.0792 H   0  0  0  0  0  0  0  0  0  0  0  0
    5.3966  -18.7528   25.0619 H   0  0  0  0  0  0  0  0  0  0  0  0
    4.1421  -19.7021   25.8938 H   0  0  0  0  0  0  0  0  0  0  0  0
    4.7782  -20.0324   22.9761 H   0  0  0  0  0  0  0  0  0  0  0  0
    3.4058  -21.7820   24.1468 H   0  0  0  0  0  0  0  0  0  0  0  0
    2.8199  -21.2109   22.5934 H   0  0  0  0  0  0  0  0  0  0  0  0
    0.8935  -20.3178   23.5988 H   0  0  0  0  0  0  0  0  0  0  0  0
   -0.5399  -21.1106   27.6016 H   0  0  0  0  0  0  0  0  0  0  0  0
   -4.3058  -20.9524   25.9146 H   0  0  0  0  0  0  0  0  0  0  0  0
   -1.0852  -21.3154   23.3703 H   0  0  0  0  0  0  0  0  0  0  0  0
    3.8327  -16.9759   24.4826 H   0  0  0  0  0  0  0  0  0  0  0  0
    3.9923  -13.2721   23.7192 H   0  0  0  0  0  0  0  0  0  0  0  0
    3.5901  -11.5112   23.6849 H   0  0  0  0  0  0  0  0  0  0  0  0
    1.8323  -10.9739   21.4285 H   0  0  0  0  0  0  0  0  0  0  0  0
  1  2  1  0
  2  3  1  0
  3  4  1  0
  4  5  1  0
  5  6  2  0
  5  7  1  0
  7  8  2  0
  8  9  1  0
  9 10  2  0
 10 11  1  0
 11 12  2  0
  2 13  1  0
 13 14  1  0
 14 15  2  0
 15 16  1  0
 16 17  2  0
 17 18  1  0
 18 19  2  0
 19 20  1  0
 15 21  1  0
 21 22  2  0
 12  7  1  0
 22 13  1  0
 20 16  1  0
  1 23  1  0
  1 24  1  0
  1 25  1  0
  2 26  1  0
  3 27  1  0
  3 28  1  0
  4 29  1  0
  8 30  1  0
 10 31  1  0
 12 32  1  0
 14 33  1  0
 17 34  1  0
 18 35  1  0
 19 36  1  0
M  END
>  <Energy>  (726) 
255.46062744586561

>  <compound_id>  (726) 
17499

>  <target_id>  (726) 
1

>  <reference_id>  (726) 
54

>  <inspiration_ids>  (726) 
[66, 54]

>  <energy_score>  (726) 
209.11476566993088

>  <distance_score>  (726) 
14.713180452872898

>  <path>  (726) 
/opt/xchem-fragalysis-2/maxwin/BulkDock/SCRATCH/511014/C17499-P54/C17499-P54.minimised.mol

>  <scratch_subdir>  (726) 
/opt/xchem-fragalysis-2/maxwin/BulkDock/SCRATCH/511014/C17499-P54

>  <fragmenstein_runtime>  (726) 
20.551796674728394

>  <fragmenstein_outcome>  (726) 
too moved

>  <fragmenstein_mode>  (726) 
expansion

>  <fragmenstein_error>  (726) 


$$$$
C17500-P66
     RDKit          3D

 30 31  0  0  0  0  0  0  0  0999 V2000
   -5.6805  -10.7399   24.7368 C   0  0  0  0  0  0  0  0  0  0  0  0
   -6.8892  -10.7549   25.6579 C   0  0  0  0  0  0  0  0  0  0  0  0
   -7.7511   -9.4841   25.3820 C   0  0  0  0  0  0  0  0  0  0  0  0
   -8.8878   -9.5574   24.9135 O   0  0  0  0  0  0  0  0  0  0  0  0
   -7.2050   -8.2440   25.7964 N   0  0  0  0  0  0  0  0  0  0  0  0
   -7.4632   -7.9117   27.1874 C   0  0  0  0  0  0  0  0  0  0  0  0
   -6.4569   -7.3573   24.9561 C   0  0  0  0  0  0  0  0  0  0  0  0
   -6.3491   -7.3893   23.5198 C   0  0  0  0  0  0  0  0  0  0  0  0
   -5.7147   -6.2793   22.9856 C   0  0  0  0  0  0  0  0  0  0  0  0
   -5.1063   -5.2320   24.1888 S   0  0  0  0  0  0  0  0  0  0  0  0
   -5.7777   -6.2304   25.4226 C   0  0  0  0  0  0  0  0  0  0  0  0
   -7.6374  -12.1140   25.7162 C   0  0  0  0  0  0  0  0  0  0  0  0
   -8.7205  -12.3296   26.5564 C   0  0  0  0  0  0  0  0  0  0  0  0
   -9.3252  -13.5277   26.7608 N   0  0  0  0  0  0  0  0  0  0  0  0
   -8.8185  -14.5653   26.0822 C   0  0  0  0  0  0  0  0  0  0  0  0
   -7.7937  -14.5050   25.2277 N   0  0  0  0  0  0  0  0  0  0  0  0
   -7.2349  -13.2774   25.0666 C   0  0  0  0  0  0  0  0  0  0  0  0
   -6.0055  -10.7802   23.6932 H   0  0  0  0  0  0  0  0  0  0  0  0
   -5.0911   -9.8302   24.8644 H   0  0  0  0  0  0  0  0  0  0  0  0
   -5.0047  -11.5746   24.9469 H   0  0  0  0  0  0  0  0  0  0  0  0
   -6.4981  -10.6280   26.6786 H   0  0  0  0  0  0  0  0  0  0  0  0
   -6.5161   -7.8947   27.7351 H   0  0  0  0  0  0  0  0  0  0  0  0
   -8.1199   -8.6555   27.6510 H   0  0  0  0  0  0  0  0  0  0  0  0
   -7.9502   -6.9335   27.2446 H   0  0  0  0  0  0  0  0  0  0  0  0
   -6.8122   -8.1485   22.9018 H   0  0  0  0  0  0  0  0  0  0  0  0
   -5.5986   -6.0178   21.9476 H   0  0  0  0  0  0  0  0  0  0  0  0
   -5.6696   -5.9014   26.4460 H   0  0  0  0  0  0  0  0  0  0  0  0
   -9.1505  -11.5144   27.1338 H   0  0  0  0  0  0  0  0  0  0  0  0
   -9.2799  -15.5333   26.2324 H   0  0  0  0  0  0  0  0  0  0  0  0
   -6.4016  -13.2772   24.3677 H   0  0  0  0  0  0  0  0  0  0  0  0
  1  2  1  0
  2  3  1  0
  3  4  2  0
  3  5  1  0
  5  6  1  0
  5  7  1  0
  7  8  1  0
  8  9  2  0
  9 10  1  0
 10 11  1  0
  2 12  1  0
 12 13  2  0
 13 14  1  0
 14 15  2  0
 15 16  1  0
 16 17  2  0
 11  7  2  0
 17 12  1  0
  1 18  1  0
  1 19  1  0
  1 20  1  0
  2 21  1  0
  6 22  1  0
  6 23  1  0
  6 24  1  0
  8 25  1  0
  9 26  1  0
 11 27  1  0
 13 28  1  0
 15 29  1  0
 17 30  1  0
M  END
>  <Energy>  (727) 
34.16018676711964

>  <compound_id>  (727) 
17500

>  <target_id>  (727) 
1

>  <reference_id>  (727) 
66

>  <inspiration_ids>  (727) 
[66, 54]

>  <energy_score>  (727) 
-36.96361955093312

>  <distance_score>  (727) 
16.969171522026887

>  <path>  (727) 
/opt/xchem-fragalysis-2/maxwin/BulkDock/SCRATCH/511014/C17500-P66/C17500-P66.minimised.mol

>  <scratch_subdir>  (727) 
/opt/xchem-fragalysis-2/maxwin/BulkDock/SCRATCH/511014/C17500-P66

>  <fragmenstein_runtime>  (727) 
18.77816152572632

>  <fragmenstein_outcome>  (727) 
too moved

>  <fragmenstein_mode>  (727) 
expansion

>  <fragmenstein_error>  (727) 


$$$$
C17500-P54
     RDKit          3D

 30 31  0  0  0  0  0  0  0  0999 V2000
   -1.9442  -15.3583   18.1817 C   0  0  0  0  0  0  0  0  0  0  0  0
   -0.2716  -15.3659   18.8500 C   0  0  0  0  0  0  0  0  0  0  0  0
    1.3230  -14.0372   18.6587 C   0  0  0  0  0  0  0  0  0  0  0  0
    1.6490  -13.9265   17.4409 O   0  0  0  0  0  0  0  0  0  0  0  0
    2.2465  -13.2492   20.2288 N   0  0  0  0  0  0  0  0  0  0  0  0
    2.0252  -11.7360   21.0016 C   0  0  0  0  0  0  0  0  0  0  0  0
    3.5772  -13.9072   21.2816 C   0  0  0  0  0  0  0  0  0  0  0  0
    4.3675  -13.1716   22.4359 C   0  0  0  0  0  0  0  0  0  0  0  0
    5.5658  -13.7052   22.8550 C   0  0  0  0  0  0  0  0  0  0  0  0
    5.5640  -15.3480   22.5062 S   0  0  0  0  0  0  0  0  0  0  0  0
    3.9440  -15.2157   21.8484 C   0  0  0  0  0  0  0  0  0  0  0  0
   -0.5479  -17.1367   19.0873 C   0  0  0  0  0  0  0  0  0  0  0  0
   -0.8054  -17.8800   20.2361 C   0  0  0  0  0  0  0  0  0  0  0  0
   -1.4759  -19.0688   20.3619 N   0  0  0  0  0  0  0  0  0  0  0  0
   -1.8584  -19.6277   19.2244 C   0  0  0  0  0  0  0  0  0  0  0  0
   -1.5983  -19.1206   18.0194 N   0  0  0  0  0  0  0  0  0  0  0  0
   -0.9516  -17.9151   17.9843 C   0  0  0  0  0  0  0  0  0  0  0  0
   -1.8849  -15.3706   17.0824 H   0  0  0  0  0  0  0  0  0  0  0  0
   -2.5762  -14.5145   18.4757 H   0  0  0  0  0  0  0  0  0  0  0  0
   -2.5571  -16.2170   18.4797 H   0  0  0  0  0  0  0  0  0  0  0  0
   -0.0788  -15.6185   17.7943 H   0  0  0  0  0  0  0  0  0  0  0  0
    2.8027  -11.6167   21.7087 H   0  0  0  0  0  0  0  0  0  0  0  0
    2.1559  -10.9407   20.2614 H   0  0  0  0  0  0  0  0  0  0  0  0
    1.1369  -11.5983   21.5882 H   0  0  0  0  0  0  0  0  0  0  0  0
    4.0772  -12.2343   22.8941 H   0  0  0  0  0  0  0  0  0  0  0  0
    6.3180  -13.2568   23.4895 H   0  0  0  0  0  0  0  0  0  0  0  0
    3.4792  -16.1828   21.8222 H   0  0  0  0  0  0  0  0  0  0  0  0
   -0.4735  -17.6173   21.2110 H   0  0  0  0  0  0  0  0  0  0  0  0
   -2.3956  -20.5666   19.2714 H   0  0  0  0  0  0  0  0  0  0  0  0
   -0.8250  -17.5418   16.9683 H   0  0  0  0  0  0  0  0  0  0  0  0
  1  2  1  0
  2  3  1  0
  3  4  2  0
  3  5  1  0
  5  6  1  0
  5  7  1  0
  7  8  1  0
  8  9  2  0
  9 10  1  0
 10 11  1  0
  2 12  1  0
 12 13  2  0
 13 14  1  0
 14 15  2  0
 15 16  1  0
 16 17  2  0
 11  7  2  0
 17 12  1  0
  1 18  1  0
  1 19  1  0
  1 20  1  0
  2 21  1  0
  6 22  1  0
  6 23  1  0
  6 24  1  0
  8 25  1  0
  9 26  1  0
 11 27  1  0
 13 28  1  0
 15 29  1  0
 17 30  1  0
M  END
>  <Energy>  (728) 
498.70179428706365

>  <compound_id>  (728) 
17500

>  <target_id>  (728) 
1

>  <reference_id>  (728) 
54

>  <inspiration_ids>  (728) 
[66, 54]

>  <energy_score>  (728) 
427.5779879690001

>  <distance_score>  (728) 
15.913157974913677

>  <path>  (728) 
/opt/xchem-fragalysis-2/maxwin/BulkDock/SCRATCH/511014/C17500-P54/C17500-P54.minimised.mol

>  <scratch_subdir>  (728) 
/opt/xchem-fragalysis-2/maxwin/BulkDock/SCRATCH/511014/C17500-P54

>  <fragmenstein_runtime>  (728) 
8.587167739868164

>  <fragmenstein_outcome>  (728) 
too moved

>  <fragmenstein_mode>  (728) 
expansion

>  <fragmenstein_error>  (728) 


$$$$
C17501-P66
     RDKit          3D

 28 30  0  0  0  0  0  0  0  0999 V2000
   -6.1103  -10.0709   24.9947 C   0  0  0  0  0  0  0  0  0  0  0  0
   -5.3813  -10.9498   23.9633 C   0  0  0  0  0  0  0  0  0  0  0  0
   -5.3858  -12.4004   24.4829 C   0  0  0  0  0  0  0  0  0  0  0  0
   -6.4386  -13.2658   24.1773 C   0  0  0  0  0  0  0  0  0  0  0  0
   -6.6458  -14.4849   24.7348 N   0  0  0  0  0  0  0  0  0  0  0  0
   -5.7419  -14.8671   25.6416 C   0  0  0  0  0  0  0  0  0  0  0  0
   -4.6862  -14.1389   26.0296 N   0  0  0  0  0  0  0  0  0  0  0  0
   -4.5392  -12.9219   25.4415 C   0  0  0  0  0  0  0  0  0  0  0  0
   -4.0754  -10.2232   23.4758 C   0  0  0  0  0  0  0  0  0  0  0  0
   -3.2974  -10.5015   22.4463 N   0  0  0  0  0  0  0  0  0  0  0  0
   -2.3916   -9.4317   22.2815 N   0  0  0  0  0  0  0  0  0  0  0  0
   -2.6816   -8.5083   23.1848 C   0  0  0  0  0  0  0  0  0  0  0  0
   -1.8873   -7.3097   23.4512 C   0  0  0  0  0  0  0  0  0  0  0  0
   -0.5163   -7.1189   23.2985 C   0  0  0  0  0  0  0  0  0  0  0  0
   -0.0990   -5.7830   23.6100 C   0  0  0  0  0  0  0  0  0  0  0  0
   -1.1422   -5.0004   24.0291 C   0  0  0  0  0  0  0  0  0  0  0  0
   -2.6089   -5.8775   24.0637 S   0  0  0  0  0  0  0  0  0  0  0  0
   -3.7297   -8.9653   23.9953 O   0  0  0  0  0  0  0  0  0  0  0  0
   -5.5280   -9.9768   25.9190 H   0  0  0  0  0  0  0  0  0  0  0  0
   -6.2823   -9.0613   24.6043 H   0  0  0  0  0  0  0  0  0  0  0  0
   -7.0882  -10.4897   25.2584 H   0  0  0  0  0  0  0  0  0  0  0  0
   -6.0043  -10.9536   23.0559 H   0  0  0  0  0  0  0  0  0  0  0  0
   -7.2075  -12.9782   23.4622 H   0  0  0  0  0  0  0  0  0  0  0  0
   -5.8701  -15.8381   26.1033 H   0  0  0  0  0  0  0  0  0  0  0  0
   -3.6963  -12.3502   25.8208 H   0  0  0  0  0  0  0  0  0  0  0  0
    0.1496   -7.8818   22.9146 H   0  0  0  0  0  0  0  0  0  0  0  0
    0.9051   -5.4072   23.5281 H   0  0  0  0  0  0  0  0  0  0  0  0
   -1.1150   -3.9617   24.3280 H   0  0  0  0  0  0  0  0  0  0  0  0
  1  2  1  0
  2  3  1  0
  3  4  2  0
  4  5  1  0
  5  6  2  0
  6  7  1  0
  7  8  2  0
  2  9  1  0
  9 10  2  0
 10 11  1  0
 11 12  2  0
 12 13  1  0
 13 14  2  0
 14 15  1  0
 15 16  2  0
 16 17  1  0
 12 18  1  0
  8  3  1  0
 18  9  1  0
 17 13  1  0
  1 19  1  0
  1 20  1  0
  1 21  1  0
  2 22  1  0
  4 23  1  0
  6 24  1  0
  8 25  1  0
 14 26  1  0
 15 27  1  0
 16 28  1  0
M  END
>  <Energy>  (729) 
36.03421695510454

>  <compound_id>  (729) 
17501

>  <target_id>  (729) 
1

>  <reference_id>  (729) 
66

>  <inspiration_ids>  (729) 
[66, 54]

>  <energy_score>  (729) 
-32.93835198660082

>  <distance_score>  (729) 
15.60313110402216

>  <path>  (729) 
/opt/xchem-fragalysis-2/maxwin/BulkDock/SCRATCH/511014/C17501-P66/C17501-P66.minimised.mol

>  <scratch_subdir>  (729) 
/opt/xchem-fragalysis-2/maxwin/BulkDock/SCRATCH/511014/C17501-P66

>  <fragmenstein_runtime>  (729) 
15.012701272964478

>  <fragmenstein_outcome>  (729) 
too moved

>  <fragmenstein_mode>  (729) 
expansion

>  <fragmenstein_error>  (729) 


$$$$
C17501-P54
     RDKit          3D

 28 30  0  0  0  0  0  0  0  0999 V2000
   -5.6338  -13.2057   18.3847 C   0  0  0  0  0  0  0  0  0  0  0  0
   -4.6452  -12.9556   19.5337 C   0  0  0  0  0  0  0  0  0  0  0  0
   -5.2356  -13.5632   20.8283 C   0  0  0  0  0  0  0  0  0  0  0  0
   -6.1770  -12.9724   21.6503 C   0  0  0  0  0  0  0  0  0  0  0  0
   -6.7784  -13.5845   22.7092 N   0  0  0  0  0  0  0  0  0  0  0  0
   -6.4235  -14.8559   22.9496 C   0  0  0  0  0  0  0  0  0  0  0  0
   -5.5462  -15.5579   22.2270 N   0  0  0  0  0  0  0  0  0  0  0  0
   -4.9811  -14.8915   21.1861 C   0  0  0  0  0  0  0  0  0  0  0  0
   -4.1759  -11.4569   19.4447 C   0  0  0  0  0  0  0  0  0  0  0  0
   -4.5494  -10.3906   20.1271 N   0  0  0  0  0  0  0  0  0  0  0  0
   -3.8339   -9.2863   19.6228 N   0  0  0  0  0  0  0  0  0  0  0  0
   -3.0968   -9.6885   18.5983 C   0  0  0  0  0  0  0  0  0  0  0  0
   -2.3149   -8.7587   17.7810 C   0  0  0  0  0  0  0  0  0  0  0  0
   -1.9246   -7.4648   18.1121 C   0  0  0  0  0  0  0  0  0  0  0  0
   -1.3547   -6.7425   17.0183 C   0  0  0  0  0  0  0  0  0  0  0  0
   -1.2386   -7.5300   15.8968 C   0  0  0  0  0  0  0  0  0  0  0  0
   -1.8727   -9.0960   16.1582 S   0  0  0  0  0  0  0  0  0  0  0  0
   -3.2377  -11.0817   18.4468 O   0  0  0  0  0  0  0  0  0  0  0  0
   -6.5614  -12.6391   18.5287 H   0  0  0  0  0  0  0  0  0  0  0  0
   -5.2070  -12.9008   17.4224 H   0  0  0  0  0  0  0  0  0  0  0  0
   -5.8984  -14.2664   18.3087 H   0  0  0  0  0  0  0  0  0  0  0  0
   -3.7305  -13.5269   19.3175 H   0  0  0  0  0  0  0  0  0  0  0  0
   -6.5141  -11.9522   21.4777 H   0  0  0  0  0  0  0  0  0  0  0  0
   -6.8849  -15.3502   23.7959 H   0  0  0  0  0  0  0  0  0  0  0  0
   -4.2887  -15.4999   20.6057 H   0  0  0  0  0  0  0  0  0  0  0  0
   -2.1069   -7.0209   19.0834 H   0  0  0  0  0  0  0  0  0  0  0  0
   -1.0351   -5.7078   17.0623 H   0  0  0  0  0  0  0  0  0  0  0  0
   -0.8276   -7.2599   14.9332 H   0  0  0  0  0  0  0  0  0  0  0  0
  1  2  1  0
  2  3  1  0
  3  4  2  0
  4  5  1  0
  5  6  2  0
  6  7  1  0
  7  8  2  0
  2  9  1  0
  9 10  2  0
 10 11  1  0
 11 12  2  0
 12 13  1  0
 13 14  2  0
 14 15  1  0
 15 16  2  0
 16 17  1  0
 12 18  1  0
  8  3  1  0
 18  9  1  0
 17 13  1  0
  1 19  1  0
  1 20  1  0
  1 21  1  0
  2 22  1  0
  4 23  1  0
  6 24  1  0
  8 25  1  0
 14 26  1  0
 15 27  1  0
 16 28  1  0
M  END
>  <Energy>  (730) 
33.159463750352089

>  <compound_id>  (730) 
17501

>  <target_id>  (730) 
1

>  <reference_id>  (730) 
54

>  <inspiration_ids>  (730) 
[66, 54]

>  <energy_score>  (730) 
-35.813105191353486

>  <distance_score>  (730) 
15.558263877971621

>  <path>  (730) 
/opt/xchem-fragalysis-2/maxwin/BulkDock/SCRATCH/511014/C17501-P54/C17501-P54.minimised.mol

>  <scratch_subdir>  (730) 
/opt/xchem-fragalysis-2/maxwin/BulkDock/SCRATCH/511014/C17501-P54

>  <fragmenstein_runtime>  (730) 
7.958401203155518

>  <fragmenstein_outcome>  (730) 
too moved

>  <fragmenstein_mode>  (730) 
expansion

>  <fragmenstein_error>  (730) 


$$$$
C17502-P66
     RDKit          3D

 43 44  0  0  0  0  0  0  0  0999 V2000
    0.3140   -8.8868   21.0191 C   0  0  0  0  0  0  0  0  0  0  0  0
    0.7614   -8.1630   19.7385 C   0  0  0  0  0  0  0  0  0  0  0  0
    1.2994   -8.7215   18.1912 C   0  0  0  0  0  0  0  0  0  0  0  0
    3.1257   -7.9903   17.6753 C   0  0  0  0  0  0  0  0  0  0  0  0
    4.7997   -6.7689   17.2664 N   0  0  0  0  0  0  0  0  0  0  0  0
    6.1370   -6.7941   15.8205 C   0  0  0  0  0  0  0  0  0  0  0  0
    6.1253   -7.5532   14.8178 O   0  0  0  0  0  0  0  0  0  0  0  0
    7.5175   -5.9225   15.7710 C   0  0  0  0  0  0  0  0  0  0  0  0
    8.7856   -7.0671   14.9831 C   0  0  0  0  0  0  0  0  0  0  0  0
   10.9981   -6.2537   15.6915 S   0  0  0  0  0  0  0  0  0  0  0  0
   10.2818   -4.2462   15.2292 C   0  0  0  0  0  0  0  0  0  0  0  0
   11.2842   -3.1518   15.2581 C   0  0  0  0  0  0  0  0  0  0  0  0
    8.6240   -4.3080   15.2352 C   0  0  0  0  0  0  0  0  0  0  0  0
   -0.5020   -8.6905   17.9438 N   0  0  0  0  0  0  0  0  0  0  0  0
   -1.6072   -9.8789   18.0276 C   0  0  0  0  0  0  0  0  0  0  0  0
   -1.4681  -11.0854   18.1937 O   0  0  0  0  0  0  0  0  0  0  0  0
   -3.0255   -9.5072   17.7818 C   0  0  0  0  0  0  0  0  0  0  0  0
   -3.9357  -10.4542   16.9038 C   0  0  0  0  0  0  0  0  0  0  0  0
   -3.9615  -11.8246   16.9917 C   0  0  0  0  0  0  0  0  0  0  0  0
   -4.9248  -12.6414   16.4800 N   0  0  0  0  0  0  0  0  0  0  0  0
   -5.9733  -12.0482   15.9316 C   0  0  0  0  0  0  0  0  0  0  0  0
   -6.0820  -10.7311   15.7649 N   0  0  0  0  0  0  0  0  0  0  0  0
   -5.0411   -9.9774   16.2099 C   0  0  0  0  0  0  0  0  0  0  0  0
   -0.7294   -9.2249   20.9751 H   0  0  0  0  0  0  0  0  0  0  0  0
    0.3642   -8.1956   21.8671 H   0  0  0  0  0  0  0  0  0  0  0  0
    0.9298   -9.7282   21.2462 H   0  0  0  0  0  0  0  0  0  0  0  0
    1.1899   -7.1941   20.0203 H   0  0  0  0  0  0  0  0  0  0  0  0
   -0.2010   -7.8095   19.5415 H   0  0  0  0  0  0  0  0  0  0  0  0
    1.1233   -8.1944   17.2399 H   0  0  0  0  0  0  0  0  0  0  0  0
    3.5561   -8.9078   18.1399 H   0  0  0  0  0  0  0  0  0  0  0  0
    2.7934   -7.3243   18.4367 H   0  0  0  0  0  0  0  0  0  0  0  0
    5.0887   -6.1257   17.9872 H   0  0  0  0  0  0  0  0  0  0  0  0
    9.4857   -7.8534   15.2577 H   0  0  0  0  0  0  0  0  0  0  0  0
   11.7809   -3.0731   14.2876 H   0  0  0  0  0  0  0  0  0  0  0  0
   12.0374   -3.3289   16.0303 H   0  0  0  0  0  0  0  0  0  0  0  0
   10.7968   -2.1955   15.4615 H   0  0  0  0  0  0  0  0  0  0  0  0
    8.7370   -4.9584   14.4236 H   0  0  0  0  0  0  0  0  0  0  0  0
   -0.9459   -7.8397   17.8897 H   0  0  0  0  0  0  0  0  0  0  0  0
   -3.2724   -9.5413   18.8512 H   0  0  0  0  0  0  0  0  0  0  0  0
   -3.2550   -8.4909   17.4944 H   0  0  0  0  0  0  0  0  0  0  0  0
   -3.1467  -12.3461   17.4854 H   0  0  0  0  0  0  0  0  0  0  0  0
   -6.7790  -12.6733   15.5689 H   0  0  0  0  0  0  0  0  0  0  0  0
   -5.1870   -8.9080   16.0703 H   0  0  0  0  0  0  0  0  0  0  0  0
  1  2  1  0
  2  3  1  0
  3  4  1  0
  4  5  1  0
  5  6  1  0
  6  7  2  0
  6  8  1  0
  8  9  2  0
  9 10  1  0
 10 11  1  0
 11 12  1  0
 11 13  2  0
  3 14  1  0
 14 15  1  0
 15 16  2  0
 15 17  1  0
 17 18  1  0
 18 19  2  0
 19 20  1  0
 20 21  2  0
 21 22  1  0
 22 23  2  0
 13  8  1  0
 23 18  1  0
  1 24  1  0
  1 25  1  0
  1 26  1  0
  2 27  1  0
  2 28  1  0
  3 29  1  0
  4 30  1  0
  4 31  1  0
  5 32  1  0
  9 33  1  0
 12 34  1  0
 12 35  1  0
 12 36  1  0
 13 37  1  0
 14 38  1  0
 17 39  1  0
 17 40  1  0
 19 41  1  0
 21 42  1  0
 23 43  1  0
M  END
>  <Energy>  (731) 
1016.8414501691065

>  <compound_id>  (731) 
17502

>  <target_id>  (731) 
1

>  <reference_id>  (731) 
66

>  <inspiration_ids>  (731) 
[66, 54]

>  <energy_score>  (731) 
982.528362786289

>  <distance_score>  (731) 
14.512623938474148

>  <path>  (731) 
/opt/xchem-fragalysis-2/maxwin/BulkDock/SCRATCH/511014/C17502-P66/C17502-P66.minimised.mol

>  <scratch_subdir>  (731) 
/opt/xchem-fragalysis-2/maxwin/BulkDock/SCRATCH/511014/C17502-P66

>  <fragmenstein_runtime>  (731) 
41.02352952957153

>  <fragmenstein_outcome>  (731) 
too moved

>  <fragmenstein_mode>  (731) 
expansion

>  <fragmenstein_error>  (731) 


$$$$
C17502-P54
     RDKit          3D

 43 44  0  0  0  0  0  0  0  0999 V2000
    0.7002  -11.3855   23.5485 C   0  0  0  0  0  0  0  0  0  0  0  0
    0.1379  -12.4235   22.2611 C   0  0  0  0  0  0  0  0  0  0  0  0
   -1.3955  -12.7922   22.0656 C   0  0  0  0  0  0  0  0  0  0  0  0
   -1.1013  -11.6275   20.3429 C   0  0  0  0  0  0  0  0  0  0  0  0
   -2.2041  -10.6665   19.0186 N   0  0  0  0  0  0  0  0  0  0  0  0
   -2.2187   -9.2334   18.6275 C   0  0  0  0  0  0  0  0  0  0  0  0
   -1.6242   -8.3016   19.0783 O   0  0  0  0  0  0  0  0  0  0  0  0
   -2.9887   -8.8269   17.4290 C   0  0  0  0  0  0  0  0  0  0  0  0
   -2.7231   -7.5559   16.8962 C   0  0  0  0  0  0  0  0  0  0  0  0
   -3.2574   -7.3557   15.2985 S   0  0  0  0  0  0  0  0  0  0  0  0
   -3.9911   -8.8988   15.3217 C   0  0  0  0  0  0  0  0  0  0  0  0
   -4.7243   -9.3796   14.1162 C   0  0  0  0  0  0  0  0  0  0  0  0
   -3.7961   -9.5647   16.5214 C   0  0  0  0  0  0  0  0  0  0  0  0
   -2.5155  -13.2992   23.5954 N   0  0  0  0  0  0  0  0  0  0  0  0
   -2.6350  -14.9456   24.5627 C   0  0  0  0  0  0  0  0  0  0  0  0
   -2.0575  -15.9822   24.2528 O   0  0  0  0  0  0  0  0  0  0  0  0
   -3.3709  -15.1373   25.9964 C   0  0  0  0  0  0  0  0  0  0  0  0
   -3.0738  -16.6546   26.7593 C   0  0  0  0  0  0  0  0  0  0  0  0
   -4.0997  -17.3515   27.3942 C   0  0  0  0  0  0  0  0  0  0  0  0
   -3.9479  -18.5655   27.9758 N   0  0  0  0  0  0  0  0  0  0  0  0
   -2.7198  -19.0708   27.9705 C   0  0  0  0  0  0  0  0  0  0  0  0
   -1.6451  -18.4917   27.4273 N   0  0  0  0  0  0  0  0  0  0  0  0
   -1.8639  -17.3094   26.7929 C   0  0  0  0  0  0  0  0  0  0  0  0
    0.6780  -11.8552   24.4878 H   0  0  0  0  0  0  0  0  0  0  0  0
    0.3704  -10.3473   23.5693 H   0  0  0  0  0  0  0  0  0  0  0  0
    1.7662  -11.4637   23.6198 H   0  0  0  0  0  0  0  0  0  0  0  0
    0.7667  -12.9870   21.5216 H   0  0  0  0  0  0  0  0  0  0  0  0
    0.7913  -11.6491   21.6950 H   0  0  0  0  0  0  0  0  0  0  0  0
   -1.7657  -11.9787   22.7299 H   0  0  0  0  0  0  0  0  0  0  0  0
   -0.9231  -12.6759   19.9428 H   0  0  0  0  0  0  0  0  0  0  0  0
   -0.3083  -10.7604   20.2700 H   0  0  0  0  0  0  0  0  0  0  0  0
   -2.7710  -11.1968   18.3633 H   0  0  0  0  0  0  0  0  0  0  0  0
   -2.1194   -6.7770   17.3437 H   0  0  0  0  0  0  0  0  0  0  0  0
   -4.0507   -9.4525   13.2560 H   0  0  0  0  0  0  0  0  0  0  0  0
   -5.1539  -10.3719   14.2895 H   0  0  0  0  0  0  0  0  0  0  0  0
   -5.5446   -8.7003   13.8625 H   0  0  0  0  0  0  0  0  0  0  0  0
   -4.1442  -10.5758   16.6837 H   0  0  0  0  0  0  0  0  0  0  0  0
   -3.0074  -12.5787   24.0937 H   0  0  0  0  0  0  0  0  0  0  0  0
   -2.9273  -14.2634   26.4610 H   0  0  0  0  0  0  0  0  0  0  0  0
   -4.3702  -15.0466   26.3159 H   0  0  0  0  0  0  0  0  0  0  0  0
   -5.1114  -16.9588   27.4244 H   0  0  0  0  0  0  0  0  0  0  0  0
   -2.5760  -20.0309   28.4500 H   0  0  0  0  0  0  0  0  0  0  0  0
   -0.9901  -16.8768   26.3157 H   0  0  0  0  0  0  0  0  0  0  0  0
  1  2  1  0
  2  3  1  0
  3  4  1  0
  4  5  1  0
  5  6  1  0
  6  7  2  0
  6  8  1  0
  8  9  2  0
  9 10  1  0
 10 11  1  0
 11 12  1  0
 11 13  2  0
  3 14  1  0
 14 15  1  0
 15 16  2  0
 15 17  1  0
 17 18  1  0
 18 19  2  0
 19 20  1  0
 20 21  2  0
 21 22  1  0
 22 23  2  0
 13  8  1  0
 23 18  1  0
  1 24  1  0
  1 25  1  0
  1 26  1  0
  2 27  1  0
  2 28  1  0
  3 29  1  0
  4 30  1  0
  4 31  1  0
  5 32  1  0
  9 33  1  0
 12 34  1  0
 12 35  1  0
 12 36  1  0
 13 37  1  0
 14 38  1  0
 17 39  1  0
 17 40  1  0
 19 41  1  0
 21 42  1  0
 23 43  1  0
M  END
>  <Energy>  (732) 
551.30617391966939

>  <compound_id>  (732) 
17502

>  <target_id>  (732) 
1

>  <reference_id>  (732) 
54

>  <inspiration_ids>  (732) 
[66, 54]

>  <energy_score>  (732) 
516.9930865368501

>  <distance_score>  (732) 
14.13163646381792

>  <path>  (732) 
/opt/xchem-fragalysis-2/maxwin/BulkDock/SCRATCH/511014/C17502-P54/C17502-P54.minimised.mol

>  <scratch_subdir>  (732) 
/opt/xchem-fragalysis-2/maxwin/BulkDock/SCRATCH/511014/C17502-P54

>  <fragmenstein_runtime>  (732) 
33.51695108413696

>  <fragmenstein_outcome>  (732) 
too moved

>  <fragmenstein_mode>  (732) 
expansion

>  <fragmenstein_error>  (732) 


$$$$
C17503-P66
     RDKit          3D

 46 47  0  0  0  0  0  0  0  0999 V2000
    4.3860  -14.6209   18.3329 C   0  0  0  0  0  0  0  0  0  0  0  0
    4.3115  -13.0999   19.0643 C   0  0  0  0  0  0  0  0  0  0  0  0
    4.4997  -12.8250   20.5460 C   0  0  0  0  0  0  0  0  0  0  0  0
    6.3298  -12.5947   20.2344 C   0  0  0  0  0  0  0  0  0  0  0  0
    7.8202  -11.5627   19.9372 N   0  0  0  0  0  0  0  0  0  0  0  0
    8.0241   -9.9263   19.6098 C   0  0  0  0  0  0  0  0  0  0  0  0
    7.0726   -9.4799   19.4769 O   0  0  0  0  0  0  0  0  0  0  0  0
    9.4581   -8.4423   19.6327 C   0  0  0  0  0  0  0  0  0  0  0  0
   10.2616   -8.1555   20.9902 C   0  0  0  0  0  0  0  0  0  0  0  0
   11.0957   -7.0887   21.4690 C   0  0  0  0  0  0  0  0  0  0  0  0
   10.9049   -5.8989   20.8616 C   0  0  0  0  0  0  0  0  0  0  0  0
   11.3793   -4.6105   21.3936 C   0  0  0  0  0  0  0  0  0  0  0  0
    9.6165   -6.0125   19.1838 S   0  0  0  0  0  0  0  0  0  0  0  0
    3.1947  -13.8078   21.0057 N   0  0  0  0  0  0  0  0  0  0  0  0
    2.1822  -14.9080   20.0653 C   0  0  0  0  0  0  0  0  0  0  0  0
    2.2994  -14.9914   18.8725 O   0  0  0  0  0  0  0  0  0  0  0  0
    0.6096  -16.0937   20.6724 C   0  0  0  0  0  0  0  0  0  0  0  0
   -1.2066  -16.4422   20.0816 C   0  0  0  0  0  0  0  0  0  0  0  0
   -2.2290  -17.7109   20.1843 C   0  0  0  0  0  0  0  0  0  0  0  0
   -2.2838  -18.7264   21.1337 C   0  0  0  0  0  0  0  0  0  0  0  0
   -3.2892  -19.6114   21.4129 N   0  0  0  0  0  0  0  0  0  0  0  0
   -4.3411  -19.5301   20.6122 C   0  0  0  0  0  0  0  0  0  0  0  0
   -4.4325  -18.6696   19.5994 N   0  0  0  0  0  0  0  0  0  0  0  0
   -3.3746  -17.8170   19.4124 C   0  0  0  0  0  0  0  0  0  0  0  0
    3.5709  -14.8390   17.6743 H   0  0  0  0  0  0  0  0  0  0  0  0
    5.0885  -14.8393   17.6107 H   0  0  0  0  0  0  0  0  0  0  0  0
    4.6259  -15.5627   18.7976 H   0  0  0  0  0  0  0  0  0  0  0  0
    5.0158  -12.3076   18.8355 H   0  0  0  0  0  0  0  0  0  0  0  0
    3.5860  -12.6316   18.4000 H   0  0  0  0  0  0  0  0  0  0  0  0
    4.3570  -12.0029   21.2161 H   0  0  0  0  0  0  0  0  0  0  0  0
    6.7088  -12.8999   21.1648 H   0  0  0  0  0  0  0  0  0  0  0  0
    5.9887  -11.5622   20.3624 H   0  0  0  0  0  0  0  0  0  0  0  0
    8.7036  -11.9596   19.9681 H   0  0  0  0  0  0  0  0  0  0  0  0
   10.1017   -8.7039   21.8920 H   0  0  0  0  0  0  0  0  0  0  0  0
   11.6258   -7.1529   22.4152 H   0  0  0  0  0  0  0  0  0  0  0  0
   10.5071   -3.9768   21.5490 H   0  0  0  0  0  0  0  0  0  0  0  0
   11.8444   -4.7387   22.3784 H   0  0  0  0  0  0  0  0  0  0  0  0
   12.1469   -4.1825   20.7464 H   0  0  0  0  0  0  0  0  0  0  0  0
    2.8850  -13.8274   21.9591 H   0  0  0  0  0  0  0  0  0  0  0  0
    0.7743  -17.1428   20.6865 H   0  0  0  0  0  0  0  0  0  0  0  0
    0.3129  -15.8086   21.6704 H   0  0  0  0  0  0  0  0  0  0  0  0
   -1.7997  -15.6518   20.5486 H   0  0  0  0  0  0  0  0  0  0  0  0
   -1.4254  -15.9741   19.1205 H   0  0  0  0  0  0  0  0  0  0  0  0
   -1.4519  -18.8803   21.8085 H   0  0  0  0  0  0  0  0  0  0  0  0
   -5.1674  -20.2096   20.7782 H   0  0  0  0  0  0  0  0  0  0  0  0
   -3.5538  -17.1616   18.5715 H   0  0  0  0  0  0  0  0  0  0  0  0
  1  2  1  0
  2  3  1  0
  3  4  1  0
  4  5  1  0
  5  6  1  0
  6  7  2  0
  6  8  1  0
  8  9  2  0
  9 10  1  0
 10 11  2  0
 11 12  1  0
 11 13  1  0
  3 14  1  0
 14 15  1  0
 15 16  2  0
 15 17  1  0
 17 18  1  0
 18 19  1  0
 19 20  2  0
 20 21  1  0
 21 22  2  0
 22 23  1  0
 23 24  2  0
 13  8  1  0
 24 19  1  0
  1 25  1  0
  1 26  1  0
  1 27  1  0
  2 28  1  0
  2 29  1  0
  3 30  1  0
  4 31  1  0
  4 32  1  0
  5 33  1  0
  9 34  1  0
 10 35  1  0
 12 36  1  0
 12 37  1  0
 12 38  1  0
 14 39  1  0
 17 40  1  0
 17 41  1  0
 18 42  1  0
 18 43  1  0
 20 44  1  0
 22 45  1  0
 24 46  1  0
M  END
>  <Energy>  (733) 
922.55098733516922

>  <compound_id>  (733) 
17503

>  <target_id>  (733) 
1

>  <reference_id>  (733) 
66

>  <inspiration_ids>  (733) 
[66, 54]

>  <energy_score>  (733) 
903.779277918831

>  <distance_score>  (733) 
11.363431487500259

>  <path>  (733) 
/opt/xchem-fragalysis-2/maxwin/BulkDock/SCRATCH/511014/C17503-P66/C17503-P66.minimised.mol

>  <scratch_subdir>  (733) 
/opt/xchem-fragalysis-2/maxwin/BulkDock/SCRATCH/511014/C17503-P66

>  <fragmenstein_runtime>  (733) 
35.77555775642395

>  <fragmenstein_outcome>  (733) 
too moved

>  <fragmenstein_mode>  (733) 
expansion

>  <fragmenstein_error>  (733) 


$$$$
C17503-P54
     RDKit          3D

 46 47  0  0  0  0  0  0  0  0999 V2000
    3.1213  -14.0502   15.5763 C   0  0  0  0  0  0  0  0  0  0  0  0
    2.8250  -12.2132   15.5932 C   0  0  0  0  0  0  0  0  0  0  0  0
    3.7878  -11.9723   16.6806 C   0  0  0  0  0  0  0  0  0  0  0  0
    5.3069  -10.2743   16.7925 C   0  0  0  0  0  0  0  0  0  0  0  0
    6.7421   -8.8255   15.9569 N   0  0  0  0  0  0  0  0  0  0  0  0
    8.2400   -7.5231   16.8128 C   0  0  0  0  0  0  0  0  0  0  0  0
    8.4173   -7.3791   18.2396 O   0  0  0  0  0  0  0  0  0  0  0  0
    9.2835   -6.8128   16.2098 C   0  0  0  0  0  0  0  0  0  0  0  0
   10.4137   -5.7076   16.7562 C   0  0  0  0  0  0  0  0  0  0  0  0
   10.8705   -5.5180   18.1430 C   0  0  0  0  0  0  0  0  0  0  0  0
   10.8079   -6.7179   18.7455 C   0  0  0  0  0  0  0  0  0  0  0  0
   11.0595   -7.1703   20.1274 C   0  0  0  0  0  0  0  0  0  0  0  0
   11.1176   -7.6597   17.3587 S   0  0  0  0  0  0  0  0  0  0  0  0
    2.0576  -13.1884   17.1439 N   0  0  0  0  0  0  0  0  0  0  0  0
    0.4993  -13.7377   16.0488 C   0  0  0  0  0  0  0  0  0  0  0  0
    0.2823  -13.5813   14.8676 O   0  0  0  0  0  0  0  0  0  0  0  0
   -1.3315  -14.6012   17.0598 C   0  0  0  0  0  0  0  0  0  0  0  0
   -2.2633  -15.9172   18.0500 C   0  0  0  0  0  0  0  0  0  0  0  0
   -3.4795  -16.7937   17.6650 C   0  0  0  0  0  0  0  0  0  0  0  0
   -3.6305  -18.1402   17.9691 C   0  0  0  0  0  0  0  0  0  0  0  0
   -4.8048  -18.8239   18.0562 N   0  0  0  0  0  0  0  0  0  0  0  0
   -5.8988  -18.1215   17.7739 C   0  0  0  0  0  0  0  0  0  0  0  0
   -5.9000  -16.8460   17.3671 N   0  0  0  0  0  0  0  0  0  0  0  0
   -4.6854  -16.2344   17.2954 C   0  0  0  0  0  0  0  0  0  0  0  0
    2.2098  -14.6157   15.5201 H   0  0  0  0  0  0  0  0  0  0  0  0
    3.6909  -14.4280   16.3886 H   0  0  0  0  0  0  0  0  0  0  0  0
    3.7575  -14.5690   14.9071 H   0  0  0  0  0  0  0  0  0  0  0  0
    2.8931  -11.6883   14.6171 H   0  0  0  0  0  0  0  0  0  0  0  0
    1.9334  -11.7000   15.5010 H   0  0  0  0  0  0  0  0  0  0  0  0
    3.5100  -11.5787   17.6645 H   0  0  0  0  0  0  0  0  0  0  0  0
    6.0212  -10.9393   17.2779 H   0  0  0  0  0  0  0  0  0  0  0  0
    4.8886   -9.8370   17.6963 H   0  0  0  0  0  0  0  0  0  0  0  0
    6.8524   -8.8338   14.9492 H   0  0  0  0  0  0  0  0  0  0  0  0
   10.6225   -4.8578   16.0907 H   0  0  0  0  0  0  0  0  0  0  0  0
   11.2599   -4.6006   18.5717 H   0  0  0  0  0  0  0  0  0  0  0  0
   12.1327   -7.2721   20.3177 H   0  0  0  0  0  0  0  0  0  0  0  0
   10.5806   -8.1367   20.3159 H   0  0  0  0  0  0  0  0  0  0  0  0
   10.6525   -6.4514   20.8458 H   0  0  0  0  0  0  0  0  0  0  0  0
    1.9354  -13.4357   18.1169 H   0  0  0  0  0  0  0  0  0  0  0  0
   -2.2619  -14.1462   17.6261 H   0  0  0  0  0  0  0  0  0  0  0  0
   -2.2723  -14.0734   16.3728 H   0  0  0  0  0  0  0  0  0  0  0  0
   -2.8504  -15.2739   18.7053 H   0  0  0  0  0  0  0  0  0  0  0  0
   -1.5719  -16.3535   18.7566 H   0  0  0  0  0  0  0  0  0  0  0  0
   -2.7966  -18.7620   18.2386 H   0  0  0  0  0  0  0  0  0  0  0  0
   -6.8546  -18.6247   17.8552 H   0  0  0  0  0  0  0  0  0  0  0  0
   -4.7271  -15.1975   16.9711 H   0  0  0  0  0  0  0  0  0  0  0  0
  1  2  1  0
  2  3  1  0
  3  4  1  0
  4  5  1  0
  5  6  1  0
  6  7  2  0
  6  8  1  0
  8  9  2  0
  9 10  1  0
 10 11  2  0
 11 12  1  0
 11 13  1  0
  3 14  1  0
 14 15  1  0
 15 16  2  0
 15 17  1  0
 17 18  1  0
 18 19  1  0
 19 20  2  0
 20 21  1  0
 21 22  2  0
 22 23  1  0
 23 24  2  0
 13  8  1  0
 24 19  1  0
  1 25  1  0
  1 26  1  0
  1 27  1  0
  2 28  1  0
  2 29  1  0
  3 30  1  0
  4 31  1  0
  4 32  1  0
  5 33  1  0
  9 34  1  0
 10 35  1  0
 12 36  1  0
 12 37  1  0
 12 38  1  0
 14 39  1  0
 17 40  1  0
 17 41  1  0
 18 42  1  0
 18 43  1  0
 20 44  1  0
 22 45  1  0
 24 46  1  0
M  END
>  <Energy>  (734) 
1672.7438045045997

>  <compound_id>  (734) 
17503

>  <target_id>  (734) 
1

>  <reference_id>  (734) 
54

>  <inspiration_ids>  (734) 
[66, 54]

>  <energy_score>  (734) 
1653.9720950882815

>  <distance_score>  (734) 
11.288279259873494

>  <path>  (734) 
/opt/xchem-fragalysis-2/maxwin/BulkDock/SCRATCH/511014/C17503-P54/C17503-P54.minimised.mol

>  <scratch_subdir>  (734) 
/opt/xchem-fragalysis-2/maxwin/BulkDock/SCRATCH/511014/C17503-P54

>  <fragmenstein_runtime>  (734) 
20.34489417076111

>  <fragmenstein_outcome>  (734) 
too moved

>  <fragmenstein_mode>  (734) 
expansion

>  <fragmenstein_error>  (734) 


$$$$
C17504-P66
     RDKit          3D

 46 47  0  0  0  0  0  0  0  0999 V2000
   -5.0715   -7.3588   22.3224 C   0  0  0  0  0  0  0  0  0  0  0  0
   -5.0297   -7.7959   20.8662 C   0  0  0  0  0  0  0  0  0  0  0  0
   -4.4180   -9.1824   20.5955 C   0  0  0  0  0  0  0  0  0  0  0  0
   -2.9235   -9.3291   21.0365 C   0  0  0  0  0  0  0  0  0  0  0  0
   -1.9087   -8.5334   20.3153 N   0  0  0  0  0  0  0  0  0  0  0  0
   -1.5469   -7.1349   20.4212 C   0  0  0  0  0  0  0  0  0  0  0  0
   -2.0343   -6.2518   21.0649 O   0  0  0  0  0  0  0  0  0  0  0  0
   -0.3579   -6.7663   19.5607 C   0  0  0  0  0  0  0  0  0  0  0  0
    0.2156   -7.3575   18.4422 C   0  0  0  0  0  0  0  0  0  0  0  0
    1.3420   -6.6494   17.9047 C   0  0  0  0  0  0  0  0  0  0  0  0
    1.6201   -5.5077   18.6180 C   0  0  0  0  0  0  0  0  0  0  0  0
    2.6918   -4.5038   18.3787 C   0  0  0  0  0  0  0  0  0  0  0  0
    0.5218   -5.3051   19.9139 S   0  0  0  0  0  0  0  0  0  0  0  0
   -5.3636  -10.2709   21.0090 N   0  0  0  0  0  0  0  0  0  0  0  0
   -5.7308  -10.7742   22.3389 C   0  0  0  0  0  0  0  0  0  0  0  0
   -5.3055  -10.4929   23.4245 O   0  0  0  0  0  0  0  0  0  0  0  0
   -6.9092  -11.8467   22.1989 C   0  0  0  0  0  0  0  0  0  0  0  0
   -8.2143  -11.0891   21.9294 C   0  0  0  0  0  0  0  0  0  0  0  0
   -7.1513  -12.8791   23.3237 C   0  0  0  0  0  0  0  0  0  0  0  0
   -7.1880  -12.5864   24.6746 C   0  0  0  0  0  0  0  0  0  0  0  0
   -7.4944  -13.4778   25.6523 N   0  0  0  0  0  0  0  0  0  0  0  0
   -7.7770  -14.7243   25.2548 C   0  0  0  0  0  0  0  0  0  0  0  0
   -7.7959  -15.1444   23.9838 N   0  0  0  0  0  0  0  0  0  0  0  0
   -7.4835  -14.2070   23.0538 C   0  0  0  0  0  0  0  0  0  0  0  0
   -5.4573   -6.3359   22.3888 H   0  0  0  0  0  0  0  0  0  0  0  0
   -4.0806   -7.3655   22.7832 H   0  0  0  0  0  0  0  0  0  0  0  0
   -5.7375   -7.9924   22.9124 H   0  0  0  0  0  0  0  0  0  0  0  0
   -6.0544   -7.7742   20.4730 H   0  0  0  0  0  0  0  0  0  0  0  0
   -4.4744   -7.0438   20.2947 H   0  0  0  0  0  0  0  0  0  0  0  0
   -4.4062   -9.2886   19.5016 H   0  0  0  0  0  0  0  0  0  0  0  0
   -2.8198   -9.0940   22.0992 H   0  0  0  0  0  0  0  0  0  0  0  0
   -2.6165  -10.3692   20.8937 H   0  0  0  0  0  0  0  0  0  0  0  0
   -1.2186   -9.0129   19.7358 H   0  0  0  0  0  0  0  0  0  0  0  0
   -0.1668   -8.2654   18.0021 H   0  0  0  0  0  0  0  0  0  0  0  0
    1.9065   -6.9724   17.0386 H   0  0  0  0  0  0  0  0  0  0  0  0
    3.5520   -4.9735   17.8903 H   0  0  0  0  0  0  0  0  0  0  0  0
    2.3241   -3.7060   17.7254 H   0  0  0  0  0  0  0  0  0  0  0  0
    3.0445   -4.0502   19.3104 H   0  0  0  0  0  0  0  0  0  0  0  0
   -5.8727  -10.7925   20.3042 H   0  0  0  0  0  0  0  0  0  0  0  0
   -6.6665  -12.4347   21.3030 H   0  0  0  0  0  0  0  0  0  0  0  0
   -8.1179  -10.4163   21.0709 H   0  0  0  0  0  0  0  0  0  0  0  0
   -8.4990  -10.4764   22.7926 H   0  0  0  0  0  0  0  0  0  0  0  0
   -9.0393  -11.7793   21.7208 H   0  0  0  0  0  0  0  0  0  0  0  0
   -6.9764  -11.5834   25.0399 H   0  0  0  0  0  0  0  0  0  0  0  0
   -8.0148  -15.4427   26.0295 H   0  0  0  0  0  0  0  0  0  0  0  0
   -7.5238  -14.5753   22.0307 H   0  0  0  0  0  0  0  0  0  0  0  0
  1  2  1  0
  2  3  1  0
  3  4  1  0
  4  5  1  0
  5  6  1  0
  6  7  2  0
  6  8  1  0
  8  9  2  0
  9 10  1  0
 10 11  2  0
 11 12  1  0
 11 13  1  0
  3 14  1  0
 14 15  1  0
 15 16  2  0
 15 17  1  0
 17 18  1  0
 17 19  1  0
 19 20  2  0
 20 21  1  0
 21 22  2  0
 22 23  1  0
 23 24  2  0
 13  8  1  0
 24 19  1  0
  1 25  1  0
  1 26  1  0
  1 27  1  0
  2 28  1  0
  2 29  1  0
  3 30  1  0
  4 31  1  0
  4 32  1  0
  5 33  1  0
  9 34  1  0
 10 35  1  0
 12 36  1  0
 12 37  1  0
 12 38  1  0
 14 39  1  0
 17 40  1  0
 18 41  1  0
 18 42  1  0
 18 43  1  0
 20 44  1  0
 22 45  1  0
 24 46  1  0
M  END
>  <Energy>  (735) 
25.150385139482729

>  <compound_id>  (735) 
17504

>  <target_id>  (735) 
1

>  <reference_id>  (735) 
66

>  <inspiration_ids>  (735) 
[66, 54]

>  <energy_score>  (735) 
-16.448585581149246

>  <distance_score>  (735) 
13.702205636626179

>  <path>  (735) 
/opt/xchem-fragalysis-2/maxwin/BulkDock/SCRATCH/511014/C17504-P66/C17504-P66.minimised.mol

>  <scratch_subdir>  (735) 
/opt/xchem-fragalysis-2/maxwin/BulkDock/SCRATCH/511014/C17504-P66

>  <fragmenstein_runtime>  (735) 
59.488513231277466

>  <fragmenstein_outcome>  (735) 
too moved

>  <fragmenstein_mode>  (735) 
expansion

>  <fragmenstein_error>  (735) 


$$$$
C17504-P54
     RDKit          3D

 46 47  0  0  0  0  0  0  0  0999 V2000
   -1.6827   -9.7803   30.2932 C   0  0  0  0  0  0  0  0  0  0  0  0
   -1.5549   -9.3516   28.8349 C   0  0  0  0  0  0  0  0  0  0  0  0
   -2.8663   -8.8085   28.2541 C   0  0  0  0  0  0  0  0  0  0  0  0
   -2.7260   -8.0551   26.8879 C   0  0  0  0  0  0  0  0  0  0  0  0
   -1.4486   -7.4376   26.4759 N   0  0  0  0  0  0  0  0  0  0  0  0
   -1.1772   -6.3028   25.6208 C   0  0  0  0  0  0  0  0  0  0  0  0
   -1.9227   -5.5290   25.0950 O   0  0  0  0  0  0  0  0  0  0  0  0
    0.2812   -6.0795   25.2964 C   0  0  0  0  0  0  0  0  0  0  0  0
    0.7833   -5.0838   24.4501 C   0  0  0  0  0  0  0  0  0  0  0  0
    2.2062   -5.0789   24.3197 C   0  0  0  0  0  0  0  0  0  0  0  0
    2.7793   -6.0924   25.0544 C   0  0  0  0  0  0  0  0  0  0  0  0
    4.2279   -6.4181   25.1940 C   0  0  0  0  0  0  0  0  0  0  0  0
    1.5897   -7.0157   25.8854 S   0  0  0  0  0  0  0  0  0  0  0  0
   -3.9565   -9.8352   28.2646 N   0  0  0  0  0  0  0  0  0  0  0  0
   -3.9206  -11.2810   28.0008 C   0  0  0  0  0  0  0  0  0  0  0  0
   -3.0222  -11.9847   27.6339 O   0  0  0  0  0  0  0  0  0  0  0  0
   -5.3118  -11.9419   28.3773 C   0  0  0  0  0  0  0  0  0  0  0  0
   -5.5285  -11.8386   29.8950 C   0  0  0  0  0  0  0  0  0  0  0  0
   -5.5683  -13.4068   27.9718 C   0  0  0  0  0  0  0  0  0  0  0  0
   -6.8372  -13.8467   27.6112 C   0  0  0  0  0  0  0  0  0  0  0  0
   -7.1659  -15.1289   27.3336 N   0  0  0  0  0  0  0  0  0  0  0  0
   -6.1631  -16.0156   27.4136 C   0  0  0  0  0  0  0  0  0  0  0  0
   -4.9057  -15.7334   27.7736 N   0  0  0  0  0  0  0  0  0  0  0  0
   -4.6437  -14.4344   28.0525 C   0  0  0  0  0  0  0  0  0  0  0  0
   -2.0147   -8.9458   30.9190 H   0  0  0  0  0  0  0  0  0  0  0  0
   -0.7121  -10.1192   30.6697 H   0  0  0  0  0  0  0  0  0  0  0  0
   -2.3918  -10.6043   30.4135 H   0  0  0  0  0  0  0  0  0  0  0  0
   -1.2120  -10.2066   28.2538 H   0  0  0  0  0  0  0  0  0  0  0  0
   -0.7743   -8.5848   28.7856 H   0  0  0  0  0  0  0  0  0  0  0  0
   -3.2236   -8.0477   28.9621 H   0  0  0  0  0  0  0  0  0  0  0  0
   -3.4643   -7.2419   26.8784 H   0  0  0  0  0  0  0  0  0  0  0  0
   -3.0527   -8.6997   26.0712 H   0  0  0  0  0  0  0  0  0  0  0  0
   -0.5773   -7.9192   26.6724 H   0  0  0  0  0  0  0  0  0  0  0  0
    0.1313   -4.3695   23.9570 H   0  0  0  0  0  0  0  0  0  0  0  0
    2.7666   -4.3695   23.7215 H   0  0  0  0  0  0  0  0  0  0  0  0
    4.7404   -5.6232   25.7454 H   0  0  0  0  0  0  0  0  0  0  0  0
    4.3945   -7.3606   25.7254 H   0  0  0  0  0  0  0  0  0  0  0  0
    4.6925   -6.5048   24.2061 H   0  0  0  0  0  0  0  0  0  0  0  0
   -4.8640   -9.5890   28.6418 H   0  0  0  0  0  0  0  0  0  0  0  0
   -6.0703  -11.3329   27.8657 H   0  0  0  0  0  0  0  0  0  0  0  0
   -4.7623  -12.4032   30.4394 H   0  0  0  0  0  0  0  0  0  0  0  0
   -6.5073  -12.2365   30.1863 H   0  0  0  0  0  0  0  0  0  0  0  0
   -5.4800  -10.8051   30.2508 H   0  0  0  0  0  0  0  0  0  0  0  0
   -7.6726  -13.1538   27.5435 H   0  0  0  0  0  0  0  0  0  0  0  0
   -6.3886  -17.0450   27.1657 H   0  0  0  0  0  0  0  0  0  0  0  0
   -3.6172  -14.2504   28.3610 H   0  0  0  0  0  0  0  0  0  0  0  0
  1  2  1  0
  2  3  1  0
  3  4  1  0
  4  5  1  0
  5  6  1  0
  6  7  2  0
  6  8  1  0
  8  9  2  0
  9 10  1  0
 10 11  2  0
 11 12  1  0
 11 13  1  0
  3 14  1  0
 14 15  1  0
 15 16  2  0
 15 17  1  0
 17 18  1  0
 17 19  1  0
 19 20  2  0
 20 21  1  0
 21 22  2  0
 22 23  1  0
 23 24  2  0
 13  8  1  0
 24 19  1  0
  1 25  1  0
  1 26  1  0
  1 27  1  0
  2 28  1  0
  2 29  1  0
  3 30  1  0
  4 31  1  0
  4 32  1  0
  5 33  1  0
  9 34  1  0
 10 35  1  0
 12 36  1  0
 12 37  1  0
 12 38  1  0
 14 39  1  0
 17 40  1  0
 18 41  1  0
 18 42  1  0
 18 43  1  0
 20 44  1  0
 22 45  1  0
 24 46  1  0
M  END
>  <Energy>  (736) 
25.520731540085546

>  <compound_id>  (736) 
17504

>  <target_id>  (736) 
1

>  <reference_id>  (736) 
54

>  <inspiration_ids>  (736) 
[66, 54]

>  <energy_score>  (736) 
-16.078239180539867

>  <distance_score>  (736) 
14.216261862270626

>  <path>  (736) 
/opt/xchem-fragalysis-2/maxwin/BulkDock/SCRATCH/511014/C17504-P54/C17504-P54.minimised.mol

>  <scratch_subdir>  (736) 
/opt/xchem-fragalysis-2/maxwin/BulkDock/SCRATCH/511014/C17504-P54

>  <fragmenstein_runtime>  (736) 
40.92787504196167

>  <fragmenstein_outcome>  (736) 
too moved

>  <fragmenstein_mode>  (736) 
expansion

>  <fragmenstein_error>  (736) 


$$$$
C17505-P66
     RDKit          3D

 46 47  0  0  0  0  0  0  0  0999 V2000
   11.3195   -8.1674   25.0790 C   0  0  0  0  0  0  0  0  0  0  0  0
   10.0998   -9.0228   25.0623 C   0  0  0  0  0  0  0  0  0  0  0  0
   10.0044  -10.3932   25.1713 C   0  0  0  0  0  0  0  0  0  0  0  0
    8.6492  -10.8650   25.1167 C   0  0  0  0  0  0  0  0  0  0  0  0
    7.7516   -9.8485   24.8527 C   0  0  0  0  0  0  0  0  0  0  0  0
    6.3110   -9.8454   24.4735 C   0  0  0  0  0  0  0  0  0  0  0  0
    5.6381   -8.9114   24.9393 O   0  0  0  0  0  0  0  0  0  0  0  0
    5.8498  -11.1593   23.5074 N   0  0  0  0  0  0  0  0  0  0  0  0
    4.0064  -11.8021   22.8422 C   0  0  0  0  0  0  0  0  0  0  0  0
    2.8726  -13.2105   23.8449 C   0  0  0  0  0  0  0  0  0  0  0  0
    3.8996  -14.0817   25.0612 C   0  0  0  0  0  0  0  0  0  0  0  0
    2.0279  -12.0891   24.0814 C   0  0  0  0  0  0  0  0  0  0  0  0
    0.9882  -13.8542   24.4168 C   0  0  0  0  0  0  0  0  0  0  0  0
   -0.7391  -14.6305   24.3369 N   0  0  0  0  0  0  0  0  0  0  0  0
   -0.4229  -14.1300   23.0820 C   0  0  0  0  0  0  0  0  0  0  0  0
   -2.1378  -14.2434   25.4778 C   0  0  0  0  0  0  0  0  0  0  0  0
   -2.9914  -13.3501   25.2982 O   0  0  0  0  0  0  0  0  0  0  0  0
   -2.5510  -15.1295   26.8077 C   0  0  0  0  0  0  0  0  0  0  0  0
   -2.1786  -15.5141   28.0795 C   0  0  0  0  0  0  0  0  0  0  0  0
   -2.8955  -16.3139   28.9387 N   0  0  0  0  0  0  0  0  0  0  0  0
   -4.1079  -16.7083   28.5355 C   0  0  0  0  0  0  0  0  0  0  0  0
   -4.6397  -16.3833   27.3651 N   0  0  0  0  0  0  0  0  0  0  0  0
   -3.8690  -15.5781   26.5837 C   0  0  0  0  0  0  0  0  0  0  0  0
    8.5553   -8.3063   24.9844 S   0  0  0  0  0  0  0  0  0  0  0  0
   11.3389   -7.5370   25.9740 H   0  0  0  0  0  0  0  0  0  0  0  0
   11.3545   -7.5221   24.1949 H   0  0  0  0  0  0  0  0  0  0  0  0
   12.2264   -8.7810   25.0801 H   0  0  0  0  0  0  0  0  0  0  0  0
   10.8662  -11.0382   25.3008 H   0  0  0  0  0  0  0  0  0  0  0  0
    8.3689  -11.9088   25.1775 H   0  0  0  0  0  0  0  0  0  0  0  0
    6.6711  -11.6883   23.2383 H   0  0  0  0  0  0  0  0  0  0  0  0
    4.1073  -12.2013   21.8064 H   0  0  0  0  0  0  0  0  0  0  0  0
    3.5769  -10.8415   22.6730 H   0  0  0  0  0  0  0  0  0  0  0  0
    3.4253  -14.2013   26.0251 H   0  0  0  0  0  0  0  0  0  0  0  0
    4.2777  -14.9972   24.5938 H   0  0  0  0  0  0  0  0  0  0  0  0
    4.7931  -13.6749   25.5823 H   0  0  0  0  0  0  0  0  0  0  0  0
    1.3804  -11.7910   23.2639 H   0  0  0  0  0  0  0  0  0  0  0  0
    1.6295  -11.9389   25.0736 H   0  0  0  0  0  0  0  0  0  0  0  0
    2.6157  -11.3131   23.9773 H   0  0  0  0  0  0  0  0  0  0  0  0
    1.0866  -13.6843   25.5497 H   0  0  0  0  0  0  0  0  0  0  0  0
    1.3568  -14.5939   23.6655 H   0  0  0  0  0  0  0  0  0  0  0  0
    0.2367  -14.6182   22.3644 H   0  0  0  0  0  0  0  0  0  0  0  0
   -1.0934  -14.7904   22.5504 H   0  0  0  0  0  0  0  0  0  0  0  0
   -0.2694  -13.0955   22.8257 H   0  0  0  0  0  0  0  0  0  0  0  0
   -1.2600  -15.1968   28.5441 H   0  0  0  0  0  0  0  0  0  0  0  0
   -4.6995  -17.3077   29.2148 H   0  0  0  0  0  0  0  0  0  0  0  0
   -4.4034  -15.2609   25.6860 H   0  0  0  0  0  0  0  0  0  0  0  0
  1  2  1  0
  2  3  2  0
  3  4  1  0
  4  5  2  0
  5  6  1  0
  6  7  2  0
  6  8  1  0
  8  9  1  0
  9 10  1  0
 10 11  1  0
 10 12  1  0
 10 13  1  0
 13 14  1  0
 14 15  1  0
 14 16  1  0
 16 17  2  0
 16 18  1  0
 18 19  2  0
 19 20  1  0
 20 21  2  0
 21 22  1  0
 22 23  2  0
  5 24  1  0
 24  2  1  0
 23 18  1  0
  1 25  1  0
  1 26  1  0
  1 27  1  0
  3 28  1  0
  4 29  1  0
  8 30  1  0
  9 31  1  0
  9 32  1  0
 11 33  1  0
 11 34  1  0
 11 35  1  0
 12 36  1  0
 12 37  1  0
 12 38  1  0
 13 39  1  0
 13 40  1  0
 15 41  1  0
 15 42  1  0
 15 43  1  0
 19 44  1  0
 21 45  1  0
 23 46  1  0
M  END
>  <Energy>  (737) 
769.50343902243651

>  <compound_id>  (737) 
17505

>  <target_id>  (737) 
1

>  <reference_id>  (737) 
66

>  <inspiration_ids>  (737) 
[66, 54]

>  <energy_score>  (737) 
723.4439530418351

>  <distance_score>  (737) 
12.641338523206167

>  <path>  (737) 
/opt/xchem-fragalysis-2/maxwin/BulkDock/SCRATCH/511014/C17505-P66/C17505-P66.minimised.mol

>  <scratch_subdir>  (737) 
/opt/xchem-fragalysis-2/maxwin/BulkDock/SCRATCH/511014/C17505-P66

>  <fragmenstein_runtime>  (737) 
28.427753448486328

>  <fragmenstein_outcome>  (737) 
too moved

>  <fragmenstein_mode>  (737) 
expansion

>  <fragmenstein_error>  (737) 


$$$$
C17505-P54
     RDKit          3D

 46 47  0  0  0  0  0  0  0  0999 V2000
    7.9628   -8.8418   23.8179 C   0  0  0  0  0  0  0  0  0  0  0  0
    6.9337   -9.1621   22.7891 C   0  0  0  0  0  0  0  0  0  0  0  0
    6.8325   -8.6965   21.5160 C   0  0  0  0  0  0  0  0  0  0  0  0
    5.6973   -9.2628   20.8707 C   0  0  0  0  0  0  0  0  0  0  0  0
    4.7843  -10.0976   21.6344 C   0  0  0  0  0  0  0  0  0  0  0  0
    2.9782  -10.8318   21.0452 C   0  0  0  0  0  0  0  0  0  0  0  0
    2.7351  -10.7396   19.8636 O   0  0  0  0  0  0  0  0  0  0  0  0
    2.2067  -11.2313   22.0769 N   0  0  0  0  0  0  0  0  0  0  0  0
    0.8699  -11.5486   22.1456 C   0  0  0  0  0  0  0  0  0  0  0  0
   -0.5355  -12.8612   22.1583 C   0  0  0  0  0  0  0  0  0  0  0  0
    1.2756  -13.1324   21.2633 C   0  0  0  0  0  0  0  0  0  0  0  0
   -1.0088  -12.9598   20.7614 C   0  0  0  0  0  0  0  0  0  0  0  0
   -1.9295  -14.4687   22.6807 C   0  0  0  0  0  0  0  0  0  0  0  0
   -1.7346  -16.2315   23.9893 N   0  0  0  0  0  0  0  0  0  0  0  0
   -1.4782  -17.5344   22.2168 C   0  0  0  0  0  0  0  0  0  0  0  0
   -2.9804  -16.2183   24.9802 C   0  0  0  0  0  0  0  0  0  0  0  0
   -4.0363  -16.7522   24.9155 O   0  0  0  0  0  0  0  0  0  0  0  0
   -2.8461  -15.5369   26.2708 C   0  0  0  0  0  0  0  0  0  0  0  0
   -2.3240  -16.3669   27.2528 C   0  0  0  0  0  0  0  0  0  0  0  0
   -2.7462  -16.4376   28.5436 N   0  0  0  0  0  0  0  0  0  0  0  0
   -3.8038  -15.6703   28.8436 C   0  0  0  0  0  0  0  0  0  0  0  0
   -4.4241  -14.8370   27.9978 N   0  0  0  0  0  0  0  0  0  0  0  0
   -3.9441  -14.8207   26.7253 C   0  0  0  0  0  0  0  0  0  0  0  0
    5.6648  -10.2167   23.1513 S   0  0  0  0  0  0  0  0  0  0  0  0
    8.7895   -8.2723   23.3805 H   0  0  0  0  0  0  0  0  0  0  0  0
    7.5268   -8.2390   24.6214 H   0  0  0  0  0  0  0  0  0  0  0  0
    8.3824   -9.7527   24.2559 H   0  0  0  0  0  0  0  0  0  0  0  0
    7.5246   -7.9896   21.0805 H   0  0  0  0  0  0  0  0  0  0  0  0
    5.4486   -9.0307   19.8608 H   0  0  0  0  0  0  0  0  0  0  0  0
    2.7766  -11.2592   22.9135 H   0  0  0  0  0  0  0  0  0  0  0  0
    0.6850  -11.1302   23.1748 H   0  0  0  0  0  0  0  0  0  0  0  0
    0.7756  -10.8094   21.2971 H   0  0  0  0  0  0  0  0  0  0  0  0
    1.5963  -14.0210   21.5942 H   0  0  0  0  0  0  0  0  0  0  0  0
    2.4004  -13.0156   21.5368 H   0  0  0  0  0  0  0  0  0  0  0  0
    1.9511  -12.7758   20.4655 H   0  0  0  0  0  0  0  0  0  0  0  0
   -0.4457  -13.6072   20.1119 H   0  0  0  0  0  0  0  0  0  0  0  0
   -1.8505  -13.5771   20.7611 H   0  0  0  0  0  0  0  0  0  0  0  0
   -1.0262  -11.9420   20.4052 H   0  0  0  0  0  0  0  0  0  0  0  0
   -2.6118  -13.8061   23.3701 H   0  0  0  0  0  0  0  0  0  0  0  0
   -2.9464  -14.2564   22.2440 H   0  0  0  0  0  0  0  0  0  0  0  0
   -1.8506  -18.5920   22.4444 H   0  0  0  0  0  0  0  0  0  0  0  0
   -0.3387  -17.7460   22.3806 H   0  0  0  0  0  0  0  0  0  0  0  0
   -1.3957  -17.3361   21.0723 H   0  0  0  0  0  0  0  0  0  0  0  0
   -1.6146  -17.1441   26.9875 H   0  0  0  0  0  0  0  0  0  0  0  0
   -4.1874  -15.7234   29.8559 H   0  0  0  0  0  0  0  0  0  0  0  0
   -4.5831  -14.2905   26.0257 H   0  0  0  0  0  0  0  0  0  0  0  0
  1  2  1  0
  2  3  2  0
  3  4  1  0
  4  5  2  0
  5  6  1  0
  6  7  2  0
  6  8  1  0
  8  9  1  0
  9 10  1  0
 10 11  1  0
 10 12  1  0
 10 13  1  0
 13 14  1  0
 14 15  1  0
 14 16  1  0
 16 17  2  0
 16 18  1  0
 18 19  2  0
 19 20  1  0
 20 21  2  0
 21 22  1  0
 22 23  2  0
  5 24  1  0
 24  2  1  0
 23 18  1  0
  1 25  1  0
  1 26  1  0
  1 27  1  0
  3 28  1  0
  4 29  1  0
  8 30  1  0
  9 31  1  0
  9 32  1  0
 11 33  1  0
 11 34  1  0
 11 35  1  0
 12 36  1  0
 12 37  1  0
 12 38  1  0
 13 39  1  0
 13 40  1  0
 15 41  1  0
 15 42  1  0
 15 43  1  0
 19 44  1  0
 21 45  1  0
 23 46  1  0
M  END
>  <Energy>  (738) 
1121.7824422699225

>  <compound_id>  (738) 
17505

>  <target_id>  (738) 
1

>  <reference_id>  (738) 
54

>  <inspiration_ids>  (738) 
[66, 54]

>  <energy_score>  (738) 
1075.7229562893497

>  <distance_score>  (738) 
12.548666978564814

>  <path>  (738) 
/opt/xchem-fragalysis-2/maxwin/BulkDock/SCRATCH/511014/C17505-P54/C17505-P54.minimised.mol

>  <scratch_subdir>  (738) 
/opt/xchem-fragalysis-2/maxwin/BulkDock/SCRATCH/511014/C17505-P54

>  <fragmenstein_runtime>  (738) 
21.412806034088135

>  <fragmenstein_outcome>  (738) 
too moved

>  <fragmenstein_mode>  (738) 
expansion

>  <fragmenstein_error>  (738) 


$$$$
C17506-P66
     RDKit          3D

 43 44  0  0  0  0  0  0  0  0999 V2000
    1.5546   -5.4705   16.9199 C   0  0  0  0  0  0  0  0  0  0  0  0
    0.1301   -5.8938   17.0073 C   0  0  0  0  0  0  0  0  0  0  0  0
   -1.0085   -5.1221   17.0138 C   0  0  0  0  0  0  0  0  0  0  0  0
   -2.2070   -5.9110   17.1523 C   0  0  0  0  0  0  0  0  0  0  0  0
   -1.9812   -7.2802   17.2280 C   0  0  0  0  0  0  0  0  0  0  0  0
   -2.9363   -8.4564   17.2411 C   0  0  0  0  0  0  0  0  0  0  0  0
   -2.5017   -9.5084   16.8469 O   0  0  0  0  0  0  0  0  0  0  0  0
   -4.2800   -8.0890   17.6475 N   0  0  0  0  0  0  0  0  0  0  0  0
   -5.5442   -8.8525   17.5997 C   0  0  0  0  0  0  0  0  0  0  0  0
   -4.4713   -8.3227   19.1981 C   0  0  0  0  0  0  0  0  0  0  0  0
   -4.4355   -9.7047   20.0171 C   0  0  0  0  0  0  0  0  0  0  0  0
   -3.3338  -10.6395   19.5343 C   0  0  0  0  0  0  0  0  0  0  0  0
   -5.6963  -10.4670   20.2697 N   0  0  0  0  0  0  0  0  0  0  0  0
   -6.5715  -10.5184   21.4544 C   0  0  0  0  0  0  0  0  0  0  0  0
   -6.5326   -9.8980   22.4826 O   0  0  0  0  0  0  0  0  0  0  0  0
   -7.6944  -11.6223   21.3124 C   0  0  0  0  0  0  0  0  0  0  0  0
   -7.9791  -12.6195   22.4574 C   0  0  0  0  0  0  0  0  0  0  0  0
   -8.8976  -13.6607   22.2967 C   0  0  0  0  0  0  0  0  0  0  0  0
   -9.1904  -14.6175   23.2190 N   0  0  0  0  0  0  0  0  0  0  0  0
   -8.5281  -14.5118   24.3774 C   0  0  0  0  0  0  0  0  0  0  0  0
   -7.6297  -13.5637   24.6711 N   0  0  0  0  0  0  0  0  0  0  0  0
   -7.3785  -12.6383   23.7027 C   0  0  0  0  0  0  0  0  0  0  0  0
   -0.2634   -7.5463   17.1296 S   0  0  0  0  0  0  0  0  0  0  0  0
    2.0470   -5.9300   16.0562 H   0  0  0  0  0  0  0  0  0  0  0  0
    1.6336   -4.3837   16.8109 H   0  0  0  0  0  0  0  0  0  0  0  0
    2.1002   -5.7569   17.8254 H   0  0  0  0  0  0  0  0  0  0  0  0
   -1.0027   -4.0414   16.9390 H   0  0  0  0  0  0  0  0  0  0  0  0
   -3.2039   -5.4868   17.1661 H   0  0  0  0  0  0  0  0  0  0  0  0
   -5.4170   -9.9309   17.7362 H   0  0  0  0  0  0  0  0  0  0  0  0
   -6.4142   -8.4075   18.1025 H   0  0  0  0  0  0  0  0  0  0  0  0
   -5.8202   -8.7946   16.5360 H   0  0  0  0  0  0  0  0  0  0  0  0
   -3.5905   -7.8070   19.5907 H   0  0  0  0  0  0  0  0  0  0  0  0
   -5.2931   -7.6854   19.5687 H   0  0  0  0  0  0  0  0  0  0  0  0
   -4.1483   -9.3921   21.0313 H   0  0  0  0  0  0  0  0  0  0  0  0
   -2.3763  -10.1152   19.4831 H   0  0  0  0  0  0  0  0  0  0  0  0
   -3.5666  -11.0573   18.5521 H   0  0  0  0  0  0  0  0  0  0  0  0
   -3.2005  -11.4836   20.2128 H   0  0  0  0  0  0  0  0  0  0  0  0
   -5.9750  -11.1903   19.6201 H   0  0  0  0  0  0  0  0  0  0  0  0
   -7.5009  -12.2160   20.4123 H   0  0  0  0  0  0  0  0  0  0  0  0
   -8.6236  -11.0660   21.1310 H   0  0  0  0  0  0  0  0  0  0  0  0
   -9.4483  -13.7678   21.3640 H   0  0  0  0  0  0  0  0  0  0  0  0
   -8.7353  -15.2472   25.1451 H   0  0  0  0  0  0  0  0  0  0  0  0
   -6.6324  -11.8974   23.9837 H   0  0  0  0  0  0  0  0  0  0  0  0
  1  2  1  0
  2  3  2  0
  3  4  1  0
  4  5  2  0
  5  6  1  0
  6  7  2  0
  6  8  1  0
  8  9  1  0
  8 10  1  0
 10 11  1  0
 11 12  1  0
 11 13  1  0
 13 14  1  0
 14 15  2  0
 14 16  1  0
 16 17  1  0
 17 18  2  0
 18 19  1  0
 19 20  2  0
 20 21  1  0
 21 22  2  0
  5 23  1  0
 23  2  1  0
 22 17  1  0
  1 24  1  0
  1 25  1  0
  1 26  1  0
  3 27  1  0
  4 28  1  0
  9 29  1  0
  9 30  1  0
  9 31  1  0
 10 32  1  0
 10 33  1  0
 11 34  1  0
 12 35  1  0
 12 36  1  0
 12 37  1  0
 13 38  1  0
 16 39  1  0
 16 40  1  0
 18 41  1  0
 20 42  1  0
 22 43  1  0
M  END
>  <Energy>  (739) 
105.76713853261714

>  <compound_id>  (739) 
17506

>  <target_id>  (739) 
1

>  <reference_id>  (739) 
66

>  <inspiration_ids>  (739) 
[66, 54]

>  <energy_score>  (739) 
65.13087251811271

>  <distance_score>  (739) 
14.67680136384851

>  <path>  (739) 
/opt/xchem-fragalysis-2/maxwin/BulkDock/SCRATCH/511014/C17506-P66/C17506-P66.minimised.mol

>  <scratch_subdir>  (739) 
/opt/xchem-fragalysis-2/maxwin/BulkDock/SCRATCH/511014/C17506-P66

>  <fragmenstein_runtime>  (739) 
33.23024249076843

>  <fragmenstein_outcome>  (739) 
too moved

>  <fragmenstein_mode>  (739) 
expansion

>  <fragmenstein_error>  (739) 


$$$$
C17506-P54
     RDKit          3D

 43 44  0  0  0  0  0  0  0  0999 V2000
   10.9431   -8.3736   20.4371 C   0  0  0  0  0  0  0  0  0  0  0  0
    9.9462   -9.4420   20.7280 C   0  0  0  0  0  0  0  0  0  0  0  0
    8.6748   -9.3134   21.2228 C   0  0  0  0  0  0  0  0  0  0  0  0
    8.0109  -10.5756   21.4076 C   0  0  0  0  0  0  0  0  0  0  0  0
    8.6930  -11.7162   20.9461 C   0  0  0  0  0  0  0  0  0  0  0  0
    8.7916  -13.2491   21.3627 C   0  0  0  0  0  0  0  0  0  0  0  0
    9.7962  -13.4335   21.8712 O   0  0  0  0  0  0  0  0  0  0  0  0
    7.4906  -14.2753   21.1116 N   0  0  0  0  0  0  0  0  0  0  0  0
    7.5066  -16.0776   21.4931 C   0  0  0  0  0  0  0  0  0  0  0  0
    5.7882  -14.6318   22.2170 C   0  0  0  0  0  0  0  0  0  0  0  0
    3.7929  -15.4572   22.7272 C   0  0  0  0  0  0  0  0  0  0  0  0
    3.8091  -17.1554   23.4331 C   0  0  0  0  0  0  0  0  0  0  0  0
    2.3632  -15.7522   23.8059 N   0  0  0  0  0  0  0  0  0  0  0  0
    0.7896  -16.8928   23.5879 C   0  0  0  0  0  0  0  0  0  0  0  0
    0.5052  -17.6949   22.7308 O   0  0  0  0  0  0  0  0  0  0  0  0
   -0.4214  -16.3707   25.0479 C   0  0  0  0  0  0  0  0  0  0  0  0
   -1.7785  -16.8586   25.8384 C   0  0  0  0  0  0  0  0  0  0  0  0
   -1.9104  -17.6594   26.9637 C   0  0  0  0  0  0  0  0  0  0  0  0
   -3.0863  -18.0653   27.5179 N   0  0  0  0  0  0  0  0  0  0  0  0
   -4.1915  -17.5202   26.9962 C   0  0  0  0  0  0  0  0  0  0  0  0
   -4.2073  -16.5877   26.0472 N   0  0  0  0  0  0  0  0  0  0  0  0
   -2.9976  -16.2635   25.5436 C   0  0  0  0  0  0  0  0  0  0  0  0
   10.3861  -11.0813   20.5477 S   0  0  0  0  0  0  0  0  0  0  0  0
   10.4747   -7.3842   20.4729 H   0  0  0  0  0  0  0  0  0  0  0  0
   11.7537   -8.3907   21.1729 H   0  0  0  0  0  0  0  0  0  0  0  0
   11.3735   -8.5000   19.4381 H   0  0  0  0  0  0  0  0  0  0  0  0
    8.2446   -8.3639   21.5196 H   0  0  0  0  0  0  0  0  0  0  0  0
    7.0959  -10.6103   21.9774 H   0  0  0  0  0  0  0  0  0  0  0  0
    7.6448  -16.9126   20.7246 H   0  0  0  0  0  0  0  0  0  0  0  0
    8.6177  -15.8943   21.2061 H   0  0  0  0  0  0  0  0  0  0  0  0
    8.1623  -16.5983   22.2536 H   0  0  0  0  0  0  0  0  0  0  0  0
    5.8751  -15.2063   21.3852 H   0  0  0  0  0  0  0  0  0  0  0  0
    5.1241  -13.8211   21.8702 H   0  0  0  0  0  0  0  0  0  0  0  0
    3.2853  -15.3942   21.7646 H   0  0  0  0  0  0  0  0  0  0  0  0
    3.0954  -17.5214   22.7254 H   0  0  0  0  0  0  0  0  0  0  0  0
    3.7682  -17.0799   24.4950 H   0  0  0  0  0  0  0  0  0  0  0  0
    4.5517  -17.9544   23.3992 H   0  0  0  0  0  0  0  0  0  0  0  0
    2.3426  -15.2373   24.6941 H   0  0  0  0  0  0  0  0  0  0  0  0
    0.0548  -15.6118   25.6693 H   0  0  0  0  0  0  0  0  0  0  0  0
   -1.0920  -15.8326   24.4437 H   0  0  0  0  0  0  0  0  0  0  0  0
   -1.0542  -18.0726   27.4845 H   0  0  0  0  0  0  0  0  0  0  0  0
   -5.1525  -17.8318   27.3676 H   0  0  0  0  0  0  0  0  0  0  0  0
   -3.0427  -15.4236   24.8580 H   0  0  0  0  0  0  0  0  0  0  0  0
  1  2  1  0
  2  3  2  0
  3  4  1  0
  4  5  2  0
  5  6  1  0
  6  7  2  0
  6  8  1  0
  8  9  1  0
  8 10  1  0
 10 11  1  0
 11 12  1  0
 11 13  1  0
 13 14  1  0
 14 15  2  0
 14 16  1  0
 16 17  1  0
 17 18  2  0
 18 19  1  0
 19 20  2  0
 20 21  1  0
 21 22  2  0
  5 23  1  0
 23  2  1  0
 22 17  1  0
  1 24  1  0
  1 25  1  0
  1 26  1  0
  3 27  1  0
  4 28  1  0
  9 29  1  0
  9 30  1  0
  9 31  1  0
 10 32  1  0
 10 33  1  0
 11 34  1  0
 12 35  1  0
 12 36  1  0
 12 37  1  0
 13 38  1  0
 16 39  1  0
 16 40  1  0
 18 41  1  0
 20 42  1  0
 22 43  1  0
M  END
>  <Energy>  (740) 
901.10957925020728

>  <compound_id>  (740) 
17506

>  <target_id>  (740) 
1

>  <reference_id>  (740) 
54

>  <inspiration_ids>  (740) 
[66, 54]

>  <energy_score>  (740) 
860.473313235702

>  <distance_score>  (740) 
11.78444899368106

>  <path>  (740) 
/opt/xchem-fragalysis-2/maxwin/BulkDock/SCRATCH/511014/C17506-P54/C17506-P54.minimised.mol

>  <scratch_subdir>  (740) 
/opt/xchem-fragalysis-2/maxwin/BulkDock/SCRATCH/511014/C17506-P54

>  <fragmenstein_runtime>  (740) 
16.798367261886597

>  <fragmenstein_outcome>  (740) 
too moved

>  <fragmenstein_mode>  (740) 
expansion

>  <fragmenstein_error>  (740) 


$$$$
C17507-P66
     RDKit          3D

 46 47  0  0  0  0  0  0  0  0999 V2000
   -2.0461  -19.2998   26.2328 C   0  0  0  0  0  0  0  0  0  0  0  0
   -1.7496  -17.7582   26.2826 C   0  0  0  0  0  0  0  0  0  0  0  0
   -2.4463  -16.3347   25.0750 C   0  0  0  0  0  0  0  0  0  0  0  0
   -3.8806  -17.5643   26.1712 C   0  0  0  0  0  0  0  0  0  0  0  0
   -5.5644  -18.6287   26.6100 N   0  0  0  0  0  0  0  0  0  0  0  0
   -5.8475  -20.4501   27.2059 C   0  0  0  0  0  0  0  0  0  0  0  0
   -4.8898  -21.2299   27.2948 O   0  0  0  0  0  0  0  0  0  0  0  0
   -7.7492  -21.5318   27.6275 C   0  0  0  0  0  0  0  0  0  0  0  0
   -9.7813  -21.4297   28.1048 C   0  0  0  0  0  0  0  0  0  0  0  0
   -8.8122  -23.2465   27.9118 C   0  0  0  0  0  0  0  0  0  0  0  0
   -9.9849  -23.8093   27.0933 C   0  0  0  0  0  0  0  0  0  0  0  0
  -10.8553  -24.9099   27.1142 N   0  0  0  0  0  0  0  0  0  0  0  0
  -10.7859  -25.6821   28.1514 C   0  0  0  0  0  0  0  0  0  0  0  0
   -9.9282  -25.4442   29.0979 N   0  0  0  0  0  0  0  0  0  0  0  0
   -9.0660  -24.3409   28.9362 C   0  0  0  0  0  0  0  0  0  0  0  0
   -1.2538  -14.5466   24.8143 N   0  0  0  0  0  0  0  0  0  0  0  0
    0.6047  -14.1630   24.0010 C   0  0  0  0  0  0  0  0  0  0  0  0
    1.3348  -14.9641   23.4149 O   0  0  0  0  0  0  0  0  0  0  0  0
    1.6037  -12.5097   24.1208 C   0  0  0  0  0  0  0  0  0  0  0  0
    0.8368  -11.6085   22.9243 C   0  0  0  0  0  0  0  0  0  0  0  0
   -0.2055  -10.8809   22.1909 C   0  0  0  0  0  0  0  0  0  0  0  0
    0.9112  -10.4552   21.6822 C   0  0  0  0  0  0  0  0  0  0  0  0
    0.9617   -8.9402   21.2878 C   0  0  0  0  0  0  0  0  0  0  0  0
    2.6040  -11.7364   22.8265 S   0  0  0  0  0  0  0  0  0  0  0  0
   -1.9150  -19.7429   25.2434 H   0  0  0  0  0  0  0  0  0  0  0  0
   -3.0158  -19.5956   26.6293 H   0  0  0  0  0  0  0  0  0  0  0  0
   -1.3191  -19.8043   26.8841 H   0  0  0  0  0  0  0  0  0  0  0  0
   -0.6733  -17.8748   26.2269 H   0  0  0  0  0  0  0  0  0  0  0  0
   -1.8843  -17.3874   27.3181 H   0  0  0  0  0  0  0  0  0  0  0  0
   -3.0566  -15.5816   25.6227 H   0  0  0  0  0  0  0  0  0  0  0  0
   -4.6203  -16.9447   25.6208 H   0  0  0  0  0  0  0  0  0  0  0  0
   -3.8398  -17.0754   27.1627 H   0  0  0  0  0  0  0  0  0  0  0  0
   -6.3956  -18.1459   26.6832 H   0  0  0  0  0  0  0  0  0  0  0  0
   -7.3050  -22.4263   27.1264 H   0  0  0  0  0  0  0  0  0  0  0  0
  -10.5800  -21.3735   27.3337 H   0  0  0  0  0  0  0  0  0  0  0  0
  -10.2757  -22.2316   28.6874 H   0  0  0  0  0  0  0  0  0  0  0  0
  -10.1325  -20.7899   28.9558 H   0  0  0  0  0  0  0  0  0  0  0  0
  -10.5390  -23.2991   26.3193 H   0  0  0  0  0  0  0  0  0  0  0  0
  -11.4509  -26.5273   28.2293 H   0  0  0  0  0  0  0  0  0  0  0  0
   -8.5893  -24.5272   29.8876 H   0  0  0  0  0  0  0  0  0  0  0  0
   -1.6033  -13.7268   25.3159 H   0  0  0  0  0  0  0  0  0  0  0  0
    0.7282  -11.1136   23.8069 H   0  0  0  0  0  0  0  0  0  0  0  0
   -1.0770  -10.2516   22.1922 H   0  0  0  0  0  0  0  0  0  0  0  0
    0.0119   -8.4753   21.5986 H   0  0  0  0  0  0  0  0  0  0  0  0
    0.9624   -8.7625   20.2224 H   0  0  0  0  0  0  0  0  0  0  0  0
    1.6873   -8.3633   21.8475 H   0  0  0  0  0  0  0  0  0  0  0  0
  1  2  1  0
  2  3  1  0
  3  4  1  0
  4  5  1  0
  5  6  1  0
  6  7  2  0
  6  8  1  0
  8  9  1  0
  8 10  1  0
 10 11  2  0
 11 12  1  0
 12 13  2  0
 13 14  1  0
 14 15  2  0
  3 16  1  0
 16 17  1  0
 17 18  2  0
 17 19  1  0
 19 20  2  0
 20 21  1  0
 21 22  2  0
 22 23  1  0
 22 24  1  0
 15 10  1  0
 24 19  1  0
  1 25  1  0
  1 26  1  0
  1 27  1  0
  2 28  1  0
  2 29  1  0
  3 30  1  0
  4 31  1  0
  4 32  1  0
  5 33  1  0
  8 34  1  0
  9 35  1  0
  9 36  1  0
  9 37  1  0
 11 38  1  0
 13 39  1  0
 15 40  1  0
 16 41  1  0
 20 42  1  0
 21 43  1  0
 23 44  1  0
 23 45  1  0
 23 46  1  0
M  END
>  <Energy>  (741) 
1880.9410221674073

>  <compound_id>  (741) 
17507

>  <target_id>  (741) 
1

>  <reference_id>  (741) 
66

>  <inspiration_ids>  (741) 
[66, 54]

>  <energy_score>  (741) 
1836.4351589415091

>  <distance_score>  (741) 
13.590448203661376

>  <path>  (741) 
/opt/xchem-fragalysis-2/maxwin/BulkDock/SCRATCH/511014/C17507-P66/C17507-P66.minimised.mol

>  <scratch_subdir>  (741) 
/opt/xchem-fragalysis-2/maxwin/BulkDock/SCRATCH/511014/C17507-P66

>  <fragmenstein_runtime>  (741) 
46.58430337905884

>  <fragmenstein_outcome>  (741) 
too moved

>  <fragmenstein_mode>  (741) 
expansion

>  <fragmenstein_error>  (741) 


$$$$
C17507-P54
     RDKit          3D

 46 47  0  0  0  0  0  0  0  0999 V2000
    4.9483   -9.0144   25.1145 C   0  0  0  0  0  0  0  0  0  0  0  0
    5.0950   -9.8816   23.8956 C   0  0  0  0  0  0  0  0  0  0  0  0
    4.2783  -11.1984   22.8253 C   0  0  0  0  0  0  0  0  0  0  0  0
    2.5944  -11.6647   21.6615 C   0  0  0  0  0  0  0  0  0  0  0  0
    1.8576  -13.1943   20.7604 N   0  0  0  0  0  0  0  0  0  0  0  0
    0.0003  -13.6604   20.1925 C   0  0  0  0  0  0  0  0  0  0  0  0
   -0.8132  -12.8951   20.5422 O   0  0  0  0  0  0  0  0  0  0  0  0
   -0.8042  -15.3196   19.2442 C   0  0  0  0  0  0  0  0  0  0  0  0
   -2.4721  -14.8575   18.4124 C   0  0  0  0  0  0  0  0  0  0  0  0
   -1.7725  -16.7869   19.3913 C   0  0  0  0  0  0  0  0  0  0  0  0
   -1.4770  -17.5131   20.5252 C   0  0  0  0  0  0  0  0  0  0  0  0
   -2.1435  -18.9960   21.2517 N   0  0  0  0  0  0  0  0  0  0  0  0
   -2.9584  -19.7645   20.0652 C   0  0  0  0  0  0  0  0  0  0  0  0
   -3.2582  -19.1122   18.8126 N   0  0  0  0  0  0  0  0  0  0  0  0
   -2.7063  -17.6553   18.5354 C   0  0  0  0  0  0  0  0  0  0  0  0
    5.9242  -10.6886   22.2266 N   0  0  0  0  0  0  0  0  0  0  0  0
    6.3370   -9.5443   21.4155 C   0  0  0  0  0  0  0  0  0  0  0  0
    5.6878   -8.7069   20.8712 O   0  0  0  0  0  0  0  0  0  0  0  0
    7.7927   -9.2845   21.3171 C   0  0  0  0  0  0  0  0  0  0  0  0
    8.3325   -7.9896   21.3001 C   0  0  0  0  0  0  0  0  0  0  0  0
    9.7378   -7.9506   21.0827 C   0  0  0  0  0  0  0  0  0  0  0  0
   10.2558   -9.2230   21.0177 C   0  0  0  0  0  0  0  0  0  0  0  0
   11.6709   -9.6455   20.8202 C   0  0  0  0  0  0  0  0  0  0  0  0
    9.0363  -10.4049   21.2452 S   0  0  0  0  0  0  0  0  0  0  0  0
    4.3701   -8.0911   25.0149 H   0  0  0  0  0  0  0  0  0  0  0  0
    4.6037   -9.6798   25.8557 H   0  0  0  0  0  0  0  0  0  0  0  0
    5.9321   -8.6398   25.4348 H   0  0  0  0  0  0  0  0  0  0  0  0
    5.2956   -9.0216   23.2510 H   0  0  0  0  0  0  0  0  0  0  0  0
    6.0928  -10.2767   24.1307 H   0  0  0  0  0  0  0  0  0  0  0  0
    4.2683  -12.1859   23.2471 H   0  0  0  0  0  0  0  0  0  0  0  0
    1.6687  -11.2604   22.0561 H   0  0  0  0  0  0  0  0  0  0  0  0
    3.0763  -12.5745   22.0065 H   0  0  0  0  0  0  0  0  0  0  0  0
    2.4873  -13.9533   20.4910 H   0  0  0  0  0  0  0  0  0  0  0  0
   -0.1076  -15.5796   18.4812 H   0  0  0  0  0  0  0  0  0  0  0  0
   -2.8269  -13.8630   18.7305 H   0  0  0  0  0  0  0  0  0  0  0  0
   -2.4278  -14.8722   17.3264 H   0  0  0  0  0  0  0  0  0  0  0  0
   -3.3626  -15.4514   18.6612 H   0  0  0  0  0  0  0  0  0  0  0  0
   -0.5945  -17.1279   20.9981 H   0  0  0  0  0  0  0  0  0  0  0  0
   -3.3440  -20.7460   20.3035 H   0  0  0  0  0  0  0  0  0  0  0  0
   -3.0052  -17.3427   17.5343 H   0  0  0  0  0  0  0  0  0  0  0  0
    6.7632  -11.1502   22.6076 H   0  0  0  0  0  0  0  0  0  0  0  0
    7.7092   -7.1076   21.3948 H   0  0  0  0  0  0  0  0  0  0  0  0
   10.3307   -7.0471   21.0028 H   0  0  0  0  0  0  0  0  0  0  0  0
   11.7791  -10.2046   19.8851 H   0  0  0  0  0  0  0  0  0  0  0  0
   12.3347   -8.7762   20.7700 H   0  0  0  0  0  0  0  0  0  0  0  0
   12.0092  -10.2780   21.6476 H   0  0  0  0  0  0  0  0  0  0  0  0
  1  2  1  0
  2  3  1  0
  3  4  1  0
  4  5  1  0
  5  6  1  0
  6  7  2  0
  6  8  1  0
  8  9  1  0
  8 10  1  0
 10 11  2  0
 11 12  1  0
 12 13  2  0
 13 14  1  0
 14 15  2  0
  3 16  1  0
 16 17  1  0
 17 18  2  0
 17 19  1  0
 19 20  2  0
 20 21  1  0
 21 22  2  0
 22 23  1  0
 22 24  1  0
 15 10  1  0
 24 19  1  0
  1 25  1  0
  1 26  1  0
  1 27  1  0
  2 28  1  0
  2 29  1  0
  3 30  1  0
  4 31  1  0
  4 32  1  0
  5 33  1  0
  8 34  1  0
  9 35  1  0
  9 36  1  0
  9 37  1  0
 11 38  1  0
 13 39  1  0
 15 40  1  0
 16 41  1  0
 20 42  1  0
 21 43  1  0
 23 44  1  0
 23 45  1  0
 23 46  1  0
M  END
>  <Energy>  (742) 
845.20145206610368

>  <compound_id>  (742) 
17507

>  <target_id>  (742) 
1

>  <reference_id>  (742) 
54

>  <inspiration_ids>  (742) 
[66, 54]

>  <energy_score>  (742) 
800.6955888401659

>  <distance_score>  (742) 
12.559424889303825

>  <path>  (742) 
/opt/xchem-fragalysis-2/maxwin/BulkDock/SCRATCH/511014/C17507-P54/C17507-P54.minimised.mol

>  <scratch_subdir>  (742) 
/opt/xchem-fragalysis-2/maxwin/BulkDock/SCRATCH/511014/C17507-P54

>  <fragmenstein_runtime>  (742) 
26.155876398086548

>  <fragmenstein_outcome>  (742) 
too moved

>  <fragmenstein_mode>  (742) 
expansion

>  <fragmenstein_error>  (742) 


$$$$
C17508-P66
     RDKit          3D

 43 44  0  0  0  0  0  0  0  0999 V2000
    3.4939  -14.6880   18.1723 C   0  0  0  0  0  0  0  0  0  0  0  0
    4.0559  -13.4711   18.9312 C   0  0  0  0  0  0  0  0  0  0  0  0
    3.9352  -13.1763   20.5106 C   0  0  0  0  0  0  0  0  0  0  0  0
    2.3773  -14.4790   20.5241 C   0  0  0  0  0  0  0  0  0  0  0  0
    0.9476  -15.5254   21.2731 N   0  0  0  0  0  0  0  0  0  0  0  0
    0.1875  -16.9622   20.7423 C   0  0  0  0  0  0  0  0  0  0  0  0
    0.4547  -17.4174   19.7063 O   0  0  0  0  0  0  0  0  0  0  0  0
   -1.0075  -18.1858   21.6903 C   0  0  0  0  0  0  0  0  0  0  0  0
   -1.3086  -19.6122   23.1443 C   0  0  0  0  0  0  0  0  0  0  0  0
   -2.2886  -20.7507   23.2317 C   0  0  0  0  0  0  0  0  0  0  0  0
   -2.5949  -21.6192   24.2469 N   0  0  0  0  0  0  0  0  0  0  0  0
   -1.7803  -21.5913   25.2804 C   0  0  0  0  0  0  0  0  0  0  0  0
   -0.6575  -20.8849   25.3020 N   0  0  0  0  0  0  0  0  0  0  0  0
   -0.4100  -20.0521   24.2354 C   0  0  0  0  0  0  0  0  0  0  0  0
    5.7147  -12.9514   20.4376 N   0  0  0  0  0  0  0  0  0  0  0  0
    6.6499  -11.9087   21.1385 C   0  0  0  0  0  0  0  0  0  0  0  0
    6.3817  -11.0759   21.9464 O   0  0  0  0  0  0  0  0  0  0  0  0
    8.3083  -11.9433   20.8928 C   0  0  0  0  0  0  0  0  0  0  0  0
    9.1095  -11.2042   19.8277 C   0  0  0  0  0  0  0  0  0  0  0  0
   10.4770  -11.3121   19.9091 C   0  0  0  0  0  0  0  0  0  0  0  0
   10.8992  -11.9940   21.3924 S   0  0  0  0  0  0  0  0  0  0  0  0
    9.2592  -11.9084   21.9411 C   0  0  0  0  0  0  0  0  0  0  0  0
    9.0950  -11.6968   23.4098 C   0  0  0  0  0  0  0  0  0  0  0  0
    2.4525  -14.6004   17.8652 H   0  0  0  0  0  0  0  0  0  0  0  0
    3.6538  -15.6112   18.6597 H   0  0  0  0  0  0  0  0  0  0  0  0
    4.1507  -15.0179   17.4033 H   0  0  0  0  0  0  0  0  0  0  0  0
    5.0184  -13.9562   18.9011 H   0  0  0  0  0  0  0  0  0  0  0  0
    3.8969  -12.5779   18.3414 H   0  0  0  0  0  0  0  0  0  0  0  0
    3.8138  -12.4770   21.3082 H   0  0  0  0  0  0  0  0  0  0  0  0
    2.3959  -15.0065   19.6597 H   0  0  0  0  0  0  0  0  0  0  0  0
    2.8904  -14.6203   21.4705 H   0  0  0  0  0  0  0  0  0  0  0  0
    0.5303  -15.2488   22.1240 H   0  0  0  0  0  0  0  0  0  0  0  0
   -1.3085  -18.7913   20.8757 H   0  0  0  0  0  0  0  0  0  0  0  0
   -1.9094  -17.7026   21.2397 H   0  0  0  0  0  0  0  0  0  0  0  0
   -2.8802  -21.0886   22.3704 H   0  0  0  0  0  0  0  0  0  0  0  0
   -2.0062  -22.2210   26.1309 H   0  0  0  0  0  0  0  0  0  0  0  0
    0.6001  -19.6703   24.3516 H   0  0  0  0  0  0  0  0  0  0  0  0
    6.2543  -13.5503   19.8825 H   0  0  0  0  0  0  0  0  0  0  0  0
    8.6579  -10.6243   19.0284 H   0  0  0  0  0  0  0  0  0  0  0  0
   11.2177  -10.9768   19.1978 H   0  0  0  0  0  0  0  0  0  0  0  0
    9.7287  -10.8757   23.7636 H   0  0  0  0  0  0  0  0  0  0  0  0
    8.0691  -11.4424   23.6852 H   0  0  0  0  0  0  0  0  0  0  0  0
    9.3724  -12.6028   23.9595 H   0  0  0  0  0  0  0  0  0  0  0  0
  1  2  1  0
  2  3  1  0
  3  4  1  0
  4  5  1  0
  5  6  1  0
  6  7  2  0
  6  8  1  0
  8  9  1  0
  9 10  2  0
 10 11  1  0
 11 12  2  0
 12 13  1  0
 13 14  2  0
  3 15  1  0
 15 16  1  0
 16 17  2  0
 16 18  1  0
 18 19  1  0
 19 20  2  0
 20 21  1  0
 21 22  1  0
 22 23  1  0
 14  9  1  0
 22 18  2  0
  1 24  1  0
  1 25  1  0
  1 26  1  0
  2 27  1  0
  2 28  1  0
  3 29  1  0
  4 30  1  0
  4 31  1  0
  5 32  1  0
  8 33  1  0
  8 34  1  0
 10 35  1  0
 12 36  1  0
 14 37  1  0
 15 38  1  0
 19 39  1  0
 20 40  1  0
 23 41  1  0
 23 42  1  0
 23 43  1  0
M  END
>  <Energy>  (743) 
683.83349830803002

>  <compound_id>  (743) 
17508

>  <target_id>  (743) 
1

>  <reference_id>  (743) 
66

>  <inspiration_ids>  (743) 
[66, 54]

>  <energy_score>  (743) 
641.6171650860348

>  <distance_score>  (743) 
11.976458265156063

>  <path>  (743) 
/opt/xchem-fragalysis-2/maxwin/BulkDock/SCRATCH/511014/C17508-P66/C17508-P66.minimised.mol

>  <scratch_subdir>  (743) 
/opt/xchem-fragalysis-2/maxwin/BulkDock/SCRATCH/511014/C17508-P66

>  <fragmenstein_runtime>  (743) 
32.10656142234802

>  <fragmenstein_outcome>  (743) 
too moved

>  <fragmenstein_mode>  (743) 
expansion

>  <fragmenstein_error>  (743) 


$$$$
C17508-P54
     RDKit          3D

 43 44  0  0  0  0  0  0  0  0999 V2000
    4.8778  -11.3894   17.4169 C   0  0  0  0  0  0  0  0  0  0  0  0
    3.6298  -11.0462   18.1271 C   0  0  0  0  0  0  0  0  0  0  0  0
    2.9842  -10.5738   19.5318 C   0  0  0  0  0  0  0  0  0  0  0  0
    2.2792  -12.2121   20.3483 C   0  0  0  0  0  0  0  0  0  0  0  0
    0.9374  -13.4857   20.8984 N   0  0  0  0  0  0  0  0  0  0  0  0
   -0.0767  -15.0181   19.8951 C   0  0  0  0  0  0  0  0  0  0  0  0
    0.1334  -15.0350   18.7108 O   0  0  0  0  0  0  0  0  0  0  0  0
   -1.1946  -16.8045   20.4298 C   0  0  0  0  0  0  0  0  0  0  0  0
   -1.8553  -18.4654   21.6212 C   0  0  0  0  0  0  0  0  0  0  0  0
   -2.1708  -19.1715   22.8964 C   0  0  0  0  0  0  0  0  0  0  0  0
   -2.6303  -20.4615   23.3909 N   0  0  0  0  0  0  0  0  0  0  0  0
   -3.1395  -21.3499   22.5531 C   0  0  0  0  0  0  0  0  0  0  0  0
   -3.2741  -21.1037   21.2766 N   0  0  0  0  0  0  0  0  0  0  0  0
   -2.7622  -19.8594   20.9053 C   0  0  0  0  0  0  0  0  0  0  0  0
    4.2813   -9.1547   19.9039 N   0  0  0  0  0  0  0  0  0  0  0  0
    5.6280   -9.1570   20.8397 C   0  0  0  0  0  0  0  0  0  0  0  0
    6.1571  -10.0658   21.4411 O   0  0  0  0  0  0  0  0  0  0  0  0
    6.3962   -7.7908   21.1319 C   0  0  0  0  0  0  0  0  0  0  0  0
    5.8434   -6.4767   21.4334 C   0  0  0  0  0  0  0  0  0  0  0  0
    6.7636   -5.4605   21.5574 C   0  0  0  0  0  0  0  0  0  0  0  0
    8.3454   -6.0418   21.4534 S   0  0  0  0  0  0  0  0  0  0  0  0
    7.8017   -7.6687   21.2537 C   0  0  0  0  0  0  0  0  0  0  0  0
    8.9110   -8.6727   21.1776 C   0  0  0  0  0  0  0  0  0  0  0  0
    4.7759  -12.3903   17.0132 H   0  0  0  0  0  0  0  0  0  0  0  0
    5.7845  -11.2343   17.9742 H   0  0  0  0  0  0  0  0  0  0  0  0
    4.9544  -10.7501   16.5311 H   0  0  0  0  0  0  0  0  0  0  0  0
    2.9627  -11.6884   17.6097 H   0  0  0  0  0  0  0  0  0  0  0  0
    3.9242  -10.0526   17.9071 H   0  0  0  0  0  0  0  0  0  0  0  0
    2.1307  -10.0216   19.8216 H   0  0  0  0  0  0  0  0  0  0  0  0
    2.5487  -12.9401   19.6128 H   0  0  0  0  0  0  0  0  0  0  0  0
    2.7550  -12.2485   21.3240 H   0  0  0  0  0  0  0  0  0  0  0  0
    0.7977  -13.5756   21.8268 H   0  0  0  0  0  0  0  0  0  0  0  0
   -0.2215  -17.2302   20.2875 H   0  0  0  0  0  0  0  0  0  0  0  0
   -1.8426  -16.9364   19.5357 H   0  0  0  0  0  0  0  0  0  0  0  0
   -2.4498  -18.6613   23.8459 H   0  0  0  0  0  0  0  0  0  0  0  0
   -3.4844  -22.2974   22.9429 H   0  0  0  0  0  0  0  0  0  0  0  0
   -2.9092  -19.8075   19.7949 H   0  0  0  0  0  0  0  0  0  0  0  0
    4.0697   -8.2143   19.6201 H   0  0  0  0  0  0  0  0  0  0  0  0
    4.7880   -6.2577   21.4692 H   0  0  0  0  0  0  0  0  0  0  0  0
    6.5678   -4.4072   21.7141 H   0  0  0  0  0  0  0  0  0  0  0  0
    9.5885   -8.5720   22.0331 H   0  0  0  0  0  0  0  0  0  0  0  0
    9.4936   -8.5410   20.2598 H   0  0  0  0  0  0  0  0  0  0  0  0
    8.5347   -9.6968   21.1951 H   0  0  0  0  0  0  0  0  0  0  0  0
  1  2  1  0
  2  3  1  0
  3  4  1  0
  4  5  1  0
  5  6  1  0
  6  7  2  0
  6  8  1  0
  8  9  1  0
  9 10  2  0
 10 11  1  0
 11 12  2  0
 12 13  1  0
 13 14  2  0
  3 15  1  0
 15 16  1  0
 16 17  2  0
 16 18  1  0
 18 19  1  0
 19 20  2  0
 20 21  1  0
 21 22  1  0
 22 23  1  0
 14  9  1  0
 22 18  2  0
  1 24  1  0
  1 25  1  0
  1 26  1  0
  2 27  1  0
  2 28  1  0
  3 29  1  0
  4 30  1  0
  4 31  1  0
  5 32  1  0
  8 33  1  0
  8 34  1  0
 10 35  1  0
 12 36  1  0
 14 37  1  0
 15 38  1  0
 19 39  1  0
 20 40  1  0
 23 41  1  0
 23 42  1  0
 23 43  1  0
M  END
>  <Energy>  (744) 
998.65312809800298

>  <compound_id>  (744) 
17508

>  <target_id>  (744) 
1

>  <reference_id>  (744) 
54

>  <inspiration_ids>  (744) 
[66, 54]

>  <energy_score>  (744) 
956.4367948760405

>  <distance_score>  (744) 
10.990504443849451

>  <path>  (744) 
/opt/xchem-fragalysis-2/maxwin/BulkDock/SCRATCH/511014/C17508-P54/C17508-P54.minimised.mol

>  <scratch_subdir>  (744) 
/opt/xchem-fragalysis-2/maxwin/BulkDock/SCRATCH/511014/C17508-P54

>  <fragmenstein_runtime>  (744) 
25.161710262298584

>  <fragmenstein_outcome>  (744) 
too moved

>  <fragmenstein_mode>  (744) 
expansion

>  <fragmenstein_error>  (744) 


$$$$
C17509-P66
     RDKit          3D

 38 39  0  0  0  0  0  0  0  0999 V2000
   10.1041  -10.6804   20.8637 C   0  0  0  0  0  0  0  0  0  0  0  0
    8.6775  -10.8613   20.5034 C   0  0  0  0  0  0  0  0  0  0  0  0
    7.9800  -10.3730   19.4666 C   0  0  0  0  0  0  0  0  0  0  0  0
    6.5555  -10.8941   19.3764 C   0  0  0  0  0  0  0  0  0  0  0  0
    5.9543  -11.7109   20.2791 C   0  0  0  0  0  0  0  0  0  0  0  0
    4.8530  -12.0153   21.2676 C   0  0  0  0  0  0  0  0  0  0  0  0
    4.7001  -11.0834   22.0128 O   0  0  0  0  0  0  0  0  0  0  0  0
    4.2683  -13.3419   21.2897 N   0  0  0  0  0  0  0  0  0  0  0  0
    3.1098  -14.2565   22.6548 C   0  0  0  0  0  0  0  0  0  0  0  0
    2.7660  -12.9862   23.6710 C   0  0  0  0  0  0  0  0  0  0  0  0
    2.4635  -11.8393   22.9898 O   0  0  0  0  0  0  0  0  0  0  0  0
    3.7947  -16.0364   23.4591 C   0  0  0  0  0  0  0  0  0  0  0  0
    3.2509  -17.6803   24.4771 N   0  0  0  0  0  0  0  0  0  0  0  0
    3.1844  -19.2848   24.0169 C   0  0  0  0  0  0  0  0  0  0  0  0
    3.5367  -19.8266   22.9695 O   0  0  0  0  0  0  0  0  0  0  0  0
    2.4649  -20.1526   25.0661 C   0  0  0  0  0  0  0  0  0  0  0  0
    2.2499  -19.8467   26.3936 C   0  0  0  0  0  0  0  0  0  0  0  0
    1.2805  -20.3988   27.1867 N   0  0  0  0  0  0  0  0  0  0  0  0
    0.4941  -21.3204   26.6080 C   0  0  0  0  0  0  0  0  0  0  0  0
    0.5830  -21.7141   25.3337 N   0  0  0  0  0  0  0  0  0  0  0  0
    1.5688  -21.1137   24.5969 C   0  0  0  0  0  0  0  0  0  0  0  0
    7.6024  -11.6533   21.4813 S   0  0  0  0  0  0  0  0  0  0  0  0
   10.2565   -9.7023   21.3312 H   0  0  0  0  0  0  0  0  0  0  0  0
   10.4539  -11.4509   21.5587 H   0  0  0  0  0  0  0  0  0  0  0  0
   10.7324  -10.7370   19.9689 H   0  0  0  0  0  0  0  0  0  0  0  0
    8.4452   -9.7819   18.7047 H   0  0  0  0  0  0  0  0  0  0  0  0
    5.9546  -10.5283   18.6113 H   0  0  0  0  0  0  0  0  0  0  0  0
    4.5548  -13.8361   20.4666 H   0  0  0  0  0  0  0  0  0  0  0  0
    3.5819  -14.2558   23.6762 H   0  0  0  0  0  0  0  0  0  0  0  0
    1.9811  -13.1337   24.3906 H   0  0  0  0  0  0  0  0  0  0  0  0
    3.6122  -12.7226   24.2143 H   0  0  0  0  0  0  0  0  0  0  0  0
    1.6080  -11.4970   23.3080 H   0  0  0  0  0  0  0  0  0  0  0  0
    4.5405  -15.6687   24.2077 H   0  0  0  0  0  0  0  0  0  0  0  0
    2.7964  -15.7102   23.5965 H   0  0  0  0  0  0  0  0  0  0  0  0
    2.9537  -17.5918   25.4422 H   0  0  0  0  0  0  0  0  0  0  0  0
    2.8449  -19.0948   26.9012 H   0  0  0  0  0  0  0  0  0  0  0  0
   -0.2709  -21.7817   27.2216 H   0  0  0  0  0  0  0  0  0  0  0  0
    1.5765  -21.3906   23.5423 H   0  0  0  0  0  0  0  0  0  0  0  0
  1  2  1  0
  2  3  2  0
  3  4  1  0
  4  5  2  0
  5  6  1  0
  6  7  2  0
  6  8  1  0
  8  9  1  0
  9 10  1  0
 10 11  1  0
  9 12  1  0
 12 13  1  0
 13 14  1  0
 14 15  2  0
 14 16  1  0
 16 17  2  0
 17 18  1  0
 18 19  2  0
 19 20  1  0
 20 21  2  0
  5 22  1  0
 22  2  1  0
 21 16  1  0
  1 23  1  0
  1 24  1  0
  1 25  1  0
  3 26  1  0
  4 27  1  0
  8 28  1  0
  9 29  1  0
 10 30  1  0
 10 31  1  0
 11 32  1  0
 12 33  1  0
 12 34  1  0
 13 35  1  0
 17 36  1  0
 19 37  1  0
 21 38  1  0
M  END
>  <Energy>  (745) 
518.08898900802046

>  <compound_id>  (745) 
17509

>  <target_id>  (745) 
1

>  <reference_id>  (745) 
66

>  <inspiration_ids>  (745) 
[66, 54]

>  <energy_score>  (745) 
467.1040658830837

>  <distance_score>  (745) 
13.346319054819629

>  <path>  (745) 
/opt/xchem-fragalysis-2/maxwin/BulkDock/SCRATCH/511014/C17509-P66/C17509-P66.minimised.mol

>  <scratch_subdir>  (745) 
/opt/xchem-fragalysis-2/maxwin/BulkDock/SCRATCH/511014/C17509-P66

>  <fragmenstein_runtime>  (745) 
21.8615140914917

>  <fragmenstein_outcome>  (745) 
too moved

>  <fragmenstein_mode>  (745) 
expansion

>  <fragmenstein_error>  (745) 


$$$$
C17509-P54
     RDKit          3D

 38 39  0  0  0  0  0  0  0  0999 V2000
   11.0586  -10.5768   22.2011 C   0  0  0  0  0  0  0  0  0  0  0  0
    9.5899  -10.3367   22.2777 C   0  0  0  0  0  0  0  0  0  0  0  0
    8.8684   -9.2618   21.8097 C   0  0  0  0  0  0  0  0  0  0  0  0
    7.4812   -9.4152   22.0891 C   0  0  0  0  0  0  0  0  0  0  0  0
    7.1617  -10.6179   22.7297 C   0  0  0  0  0  0  0  0  0  0  0  0
    5.7347  -11.0171   23.0737 C   0  0  0  0  0  0  0  0  0  0  0  0
    5.0807  -10.0694   23.4180 O   0  0  0  0  0  0  0  0  0  0  0  0
    5.1632  -12.7511   22.8149 N   0  0  0  0  0  0  0  0  0  0  0  0
    3.8410  -13.3722   23.0600 C   0  0  0  0  0  0  0  0  0  0  0  0
    3.2102  -12.8636   21.7247 C   0  0  0  0  0  0  0  0  0  0  0  0
    2.0517  -13.0637   21.0087 O   0  0  0  0  0  0  0  0  0  0  0  0
    3.4749  -15.4685   23.4010 C   0  0  0  0  0  0  0  0  0  0  0  0
    4.0758  -16.9662   24.5194 N   0  0  0  0  0  0  0  0  0  0  0  0
    4.3907  -18.2975   24.2055 C   0  0  0  0  0  0  0  0  0  0  0  0
    4.4497  -18.8407   23.1767 O   0  0  0  0  0  0  0  0  0  0  0  0
    4.6307  -19.2856   25.3963 C   0  0  0  0  0  0  0  0  0  0  0  0
    4.6949  -18.9167   26.7301 C   0  0  0  0  0  0  0  0  0  0  0  0
    4.2348  -19.6783   27.7666 N   0  0  0  0  0  0  0  0  0  0  0  0
    3.7495  -20.8919   27.4575 C   0  0  0  0  0  0  0  0  0  0  0  0
    3.7142  -21.4105   26.2264 N   0  0  0  0  0  0  0  0  0  0  0  0
    4.1861  -20.6061   25.2314 C   0  0  0  0  0  0  0  0  0  0  0  0
    8.5840  -11.4872   23.0693 S   0  0  0  0  0  0  0  0  0  0  0  0
   11.2721  -11.5153   21.6790 H   0  0  0  0  0  0  0  0  0  0  0  0
   11.5583   -9.7695   21.6554 H   0  0  0  0  0  0  0  0  0  0  0  0
   11.4968  -10.6256   23.2034 H   0  0  0  0  0  0  0  0  0  0  0  0
    9.3091   -8.4095   21.3079 H   0  0  0  0  0  0  0  0  0  0  0  0
    6.7238   -8.6883   21.8161 H   0  0  0  0  0  0  0  0  0  0  0  0
    6.0285  -13.4131   22.5895 H   0  0  0  0  0  0  0  0  0  0  0  0
    3.6063  -12.7867   23.9601 H   0  0  0  0  0  0  0  0  0  0  0  0
    3.8945  -13.3820   21.1110 H   0  0  0  0  0  0  0  0  0  0  0  0
    3.0255  -11.8225   21.9546 H   0  0  0  0  0  0  0  0  0  0  0  0
    2.0809  -12.4633   20.2291 H   0  0  0  0  0  0  0  0  0  0  0  0
    2.7495  -15.3078   24.2060 H   0  0  0  0  0  0  0  0  0  0  0  0
    2.9770  -15.9494   22.5784 H   0  0  0  0  0  0  0  0  0  0  0  0
    4.0385  -16.8626   25.5427 H   0  0  0  0  0  0  0  0  0  0  0  0
    5.0333  -17.9308   27.0334 H   0  0  0  0  0  0  0  0  0  0  0  0
    3.3775  -21.5043   28.2711 H   0  0  0  0  0  0  0  0  0  0  0  0
    4.0915  -21.0439   24.2397 H   0  0  0  0  0  0  0  0  0  0  0  0
  1  2  1  0
  2  3  2  0
  3  4  1  0
  4  5  2  0
  5  6  1  0
  6  7  2  0
  6  8  1  0
  8  9  1  0
  9 10  1  0
 10 11  1  0
  9 12  1  0
 12 13  1  0
 13 14  1  0
 14 15  2  0
 14 16  1  0
 16 17  2  0
 17 18  1  0
 18 19  2  0
 19 20  1  0
 20 21  2  0
  5 22  1  0
 22  2  1  0
 21 16  1  0
  1 23  1  0
  1 24  1  0
  1 25  1  0
  3 26  1  0
  4 27  1  0
  8 28  1  0
  9 29  1  0
 10 30  1  0
 10 31  1  0
 11 32  1  0
 12 33  1  0
 12 34  1  0
 13 35  1  0
 17 36  1  0
 19 37  1  0
 21 38  1  0
M  END
>  <Energy>  (746) 
349.37721582862241

>  <compound_id>  (746) 
17509

>  <target_id>  (746) 
1

>  <reference_id>  (746) 
54

>  <inspiration_ids>  (746) 
[66, 54]

>  <energy_score>  (746) 
298.39229270370845

>  <distance_score>  (746) 
14.449282820124964

>  <path>  (746) 
/opt/xchem-fragalysis-2/maxwin/BulkDock/SCRATCH/511014/C17509-P54/C17509-P54.minimised.mol

>  <scratch_subdir>  (746) 
/opt/xchem-fragalysis-2/maxwin/BulkDock/SCRATCH/511014/C17509-P54

>  <fragmenstein_runtime>  (746) 
22.57050919532776

>  <fragmenstein_outcome>  (746) 
too moved

>  <fragmenstein_mode>  (746) 
expansion

>  <fragmenstein_error>  (746) 


$$$$
C17510-P66
     RDKit          3D

 43 44  0  0  0  0  0  0  0  0999 V2000
   11.5387   -4.4183   16.5909 C   0  0  0  0  0  0  0  0  0  0  0  0
   10.0835   -4.7417   16.9231 C   0  0  0  0  0  0  0  0  0  0  0  0
    8.3100   -4.5423   15.9626 C   0  0  0  0  0  0  0  0  0  0  0  0
    6.9226   -5.7748   16.6792 C   0  0  0  0  0  0  0  0  0  0  0  0
    6.8666   -6.5319   18.2753 C   0  0  0  0  0  0  0  0  0  0  0  0
    4.8802   -7.5879   18.3320 C   0  0  0  0  0  0  0  0  0  0  0  0
    2.8344   -8.6681   18.7509 C   0  0  0  0  0  0  0  0  0  0  0  0
    1.6546   -9.3623   20.5793 C   0  0  0  0  0  0  0  0  0  0  0  0
    2.0476   -8.8606   21.5727 O   0  0  0  0  0  0  0  0  0  0  0  0
    0.3838  -10.6317   20.9878 N   0  0  0  0  0  0  0  0  0  0  0  0
   -0.2117  -11.2917   22.4556 C   0  0  0  0  0  0  0  0  0  0  0  0
   -1.6009  -10.8439   21.3691 C   0  0  0  0  0  0  0  0  0  0  0  0
   -0.3212  -13.3820   23.0618 C   0  0  0  0  0  0  0  0  0  0  0  0
   -0.9490  -13.8848   24.8184 N   0  0  0  0  0  0  0  0  0  0  0  0
   -2.0670  -14.9867   25.3138 C   0  0  0  0  0  0  0  0  0  0  0  0
   -2.8083  -15.6491   24.6479 O   0  0  0  0  0  0  0  0  0  0  0  0
   -2.1862  -15.5359   27.2218 C   0  0  0  0  0  0  0  0  0  0  0  0
   -2.3621  -17.0046   27.3464 C   0  0  0  0  0  0  0  0  0  0  0  0
   -1.8112  -17.9796   28.1580 N   0  0  0  0  0  0  0  0  0  0  0  0
   -1.5073  -17.5065   29.3397 C   0  0  0  0  0  0  0  0  0  0  0  0
   -1.6629  -16.2247   29.6284 N   0  0  0  0  0  0  0  0  0  0  0  0
   -1.9617  -15.3371   28.5733 C   0  0  0  0  0  0  0  0  0  0  0  0
    9.3123   -5.9872   18.9481 S   0  0  0  0  0  0  0  0  0  0  0  0
   11.5493   -3.7959   15.6901 H   0  0  0  0  0  0  0  0  0  0  0  0
   12.0881   -3.8735   17.3599 H   0  0  0  0  0  0  0  0  0  0  0  0
   12.1004   -5.3277   16.3943 H   0  0  0  0  0  0  0  0  0  0  0  0
    8.5574   -3.9560   15.0515 H   0  0  0  0  0  0  0  0  0  0  0  0
    6.1726   -6.1745   16.0416 H   0  0  0  0  0  0  0  0  0  0  0  0
    4.5510   -6.6275   18.0054 H   0  0  0  0  0  0  0  0  0  0  0  0
    5.3127   -7.8112   19.2922 H   0  0  0  0  0  0  0  0  0  0  0  0
    2.1166   -7.9438   18.3541 H   0  0  0  0  0  0  0  0  0  0  0  0
    2.7787   -9.4380   17.9773 H   0  0  0  0  0  0  0  0  0  0  0  0
    0.0316  -10.9471   20.1742 H   0  0  0  0  0  0  0  0  0  0  0  0
    0.8420  -11.3909   22.5969 H   0  0  0  0  0  0  0  0  0  0  0  0
   -1.4971   -9.7874   21.0513 H   0  0  0  0  0  0  0  0  0  0  0  0
   -2.6444  -10.7533   21.6669 H   0  0  0  0  0  0  0  0  0  0  0  0
   -1.6944  -11.5503   20.5278 H   0  0  0  0  0  0  0  0  0  0  0  0
   -0.3244  -14.2632   22.3856 H   0  0  0  0  0  0  0  0  0  0  0  0
    0.5246  -13.9464   23.6243 H   0  0  0  0  0  0  0  0  0  0  0  0
   -0.5430  -13.4285   25.6181 H   0  0  0  0  0  0  0  0  0  0  0  0
   -3.4250  -17.2589   27.5296 H   0  0  0  0  0  0  0  0  0  0  0  0
   -1.1482  -18.1773   30.1071 H   0  0  0  0  0  0  0  0  0  0  0  0
   -2.2283  -14.4384   29.0832 H   0  0  0  0  0  0  0  0  0  0  0  0
  1  2  1  0
  2  3  2  0
  3  4  1  0
  4  5  2  0
  5  6  1  0
  6  7  1  0
  7  8  1  0
  8  9  2  0
  8 10  1  0
 10 11  1  0
 11 12  1  0
 11 13  1  0
 13 14  1  0
 14 15  1  0
 15 16  2  0
 15 17  1  0
 17 18  2  0
 18 19  1  0
 19 20  2  0
 20 21  1  0
 21 22  2  0
  5 23  1  0
 23  2  1  0
 22 17  1  0
  1 24  1  0
  1 25  1  0
  1 26  1  0
  3 27  1  0
  4 28  1  0
  6 29  1  0
  6 30  1  0
  7 31  1  0
  7 32  1  0
 10 33  1  0
 11 34  1  0
 12 35  1  0
 12 36  1  0
 12 37  1  0
 13 38  1  0
 13 39  1  0
 14 40  1  0
 18 41  1  0
 20 42  1  0
 22 43  1  0
M  END
>  <Energy>  (747) 
1997.7616221531634

>  <compound_id>  (747) 
17510

>  <target_id>  (747) 
1

>  <reference_id>  (747) 
66

>  <inspiration_ids>  (747) 
[66, 54]

>  <energy_score>  (747) 
1967.487260315524

>  <distance_score>  (747) 
10.556108830861294

>  <path>  (747) 
/opt/xchem-fragalysis-2/maxwin/BulkDock/SCRATCH/511014/C17510-P66/C17510-P66.minimised.mol

>  <scratch_subdir>  (747) 
/opt/xchem-fragalysis-2/maxwin/BulkDock/SCRATCH/511014/C17510-P66

>  <fragmenstein_runtime>  (747) 
28.38733196258545

>  <fragmenstein_outcome>  (747) 
too moved

>  <fragmenstein_mode>  (747) 
expansion

>  <fragmenstein_error>  (747) 


$$$$
C17510-P54
     RDKit          3D

 43 44  0  0  0  0  0  0  0  0999 V2000
   10.1475   -6.2498   20.8855 C   0  0  0  0  0  0  0  0  0  0  0  0
    9.2989   -7.3999   21.3070 C   0  0  0  0  0  0  0  0  0  0  0  0
    9.6107   -8.7413   21.2915 C   0  0  0  0  0  0  0  0  0  0  0  0
    8.5468   -9.5589   21.7952 C   0  0  0  0  0  0  0  0  0  0  0  0
    7.4404   -8.8289   22.1843 C   0  0  0  0  0  0  0  0  0  0  0  0
    6.0481   -9.2759   22.6531 C   0  0  0  0  0  0  0  0  0  0  0  0
    5.8565  -10.4806   23.6276 C   0  0  0  0  0  0  0  0  0  0  0  0
    4.3710  -10.7804   24.7554 C   0  0  0  0  0  0  0  0  0  0  0  0
    4.0623   -9.7232   25.3170 O   0  0  0  0  0  0  0  0  0  0  0  0
    3.5516  -12.4421   24.8352 N   0  0  0  0  0  0  0  0  0  0  0  0
    1.8893  -13.0289   25.7001 C   0  0  0  0  0  0  0  0  0  0  0  0
    1.4579  -11.8321   24.4752 C   0  0  0  0  0  0  0  0  0  0  0  0
    1.0324  -14.8881   25.8401 C   0  0  0  0  0  0  0  0  0  0  0  0
   -0.6184  -15.9589   25.5321 N   0  0  0  0  0  0  0  0  0  0  0  0
   -1.1980  -17.5064   26.2954 C   0  0  0  0  0  0  0  0  0  0  0  0
   -0.6467  -18.0939   27.2262 O   0  0  0  0  0  0  0  0  0  0  0  0
   -2.6211  -18.2674   25.9374 C   0  0  0  0  0  0  0  0  0  0  0  0
   -3.0679  -18.9984   24.8422 C   0  0  0  0  0  0  0  0  0  0  0  0
   -3.8654  -20.1037   24.8244 N   0  0  0  0  0  0  0  0  0  0  0  0
   -4.2461  -20.5715   26.0040 C   0  0  0  0  0  0  0  0  0  0  0  0
   -3.9105  -20.0596   27.1747 N   0  0  0  0  0  0  0  0  0  0  0  0
   -3.0922  -18.9690   27.0819 C   0  0  0  0  0  0  0  0  0  0  0  0
    7.7199   -7.1415   21.9059 S   0  0  0  0  0  0  0  0  0  0  0  0
   10.0053   -6.0471   19.8193 H   0  0  0  0  0  0  0  0  0  0  0  0
    9.9105   -5.3397   21.4460 H   0  0  0  0  0  0  0  0  0  0  0  0
   11.2069   -6.4733   21.0495 H   0  0  0  0  0  0  0  0  0  0  0  0
   10.5613   -9.1304   20.9461 H   0  0  0  0  0  0  0  0  0  0  0  0
    8.5928  -10.6407   21.8519 H   0  0  0  0  0  0  0  0  0  0  0  0
    5.5482   -9.5441   21.7230 H   0  0  0  0  0  0  0  0  0  0  0  0
    5.5949   -8.4115   23.1500 H   0  0  0  0  0  0  0  0  0  0  0  0
    6.5397  -10.0491   24.3735 H   0  0  0  0  0  0  0  0  0  0  0  0
    6.5014  -11.2940   23.3172 H   0  0  0  0  0  0  0  0  0  0  0  0
    3.9875  -13.0771   24.2045 H   0  0  0  0  0  0  0  0  0  0  0  0
    1.5497  -12.8724   26.7124 H   0  0  0  0  0  0  0  0  0  0  0  0
    0.5251  -11.4361   24.1477 H   0  0  0  0  0  0  0  0  0  0  0  0
    2.0799  -11.7122   23.6044 H   0  0  0  0  0  0  0  0  0  0  0  0
    2.1450  -11.1156   24.8078 H   0  0  0  0  0  0  0  0  0  0  0  0
    1.8380  -15.4201   25.3488 H   0  0  0  0  0  0  0  0  0  0  0  0
    0.8575  -14.7839   26.9038 H   0  0  0  0  0  0  0  0  0  0  0  0
   -1.2000  -15.7412   24.7464 H   0  0  0  0  0  0  0  0  0  0  0  0
   -2.6711  -18.9030   23.8532 H   0  0  0  0  0  0  0  0  0  0  0  0
   -4.9073  -21.4166   25.9698 H   0  0  0  0  0  0  0  0  0  0  0  0
   -2.7133  -18.7042   28.0708 H   0  0  0  0  0  0  0  0  0  0  0  0
  1  2  1  0
  2  3  2  0
  3  4  1  0
  4  5  2  0
  5  6  1  0
  6  7  1  0
  7  8  1  0
  8  9  2  0
  8 10  1  0
 10 11  1  0
 11 12  1  0
 11 13  1  0
 13 14  1  0
 14 15  1  0
 15 16  2  0
 15 17  1  0
 17 18  2  0
 18 19  1  0
 19 20  2  0
 20 21  1  0
 21 22  2  0
  5 23  1  0
 23  2  1  0
 22 17  1  0
  1 24  1  0
  1 25  1  0
  1 26  1  0
  3 27  1  0
  4 28  1  0
  6 29  1  0
  6 30  1  0
  7 31  1  0
  7 32  1  0
 10 33  1  0
 11 34  1  0
 12 35  1  0
 12 36  1  0
 12 37  1  0
 13 38  1  0
 13 39  1  0
 14 40  1  0
 18 41  1  0
 20 42  1  0
 22 43  1  0
M  END
>  <Energy>  (748) 
563.30584296016173

>  <compound_id>  (748) 
17510

>  <target_id>  (748) 
1

>  <reference_id>  (748) 
54

>  <inspiration_ids>  (748) 
[66, 54]

>  <energy_score>  (748) 
533.0314811224812

>  <distance_score>  (748) 
10.806887109034808

>  <path>  (748) 
/opt/xchem-fragalysis-2/maxwin/BulkDock/SCRATCH/511014/C17510-P54/C17510-P54.minimised.mol

>  <scratch_subdir>  (748) 
/opt/xchem-fragalysis-2/maxwin/BulkDock/SCRATCH/511014/C17510-P54

>  <fragmenstein_runtime>  (748) 
19.19409489631653

>  <fragmenstein_outcome>  (748) 
too moved

>  <fragmenstein_mode>  (748) 
expansion

>  <fragmenstein_error>  (748) 


$$$$
C17511-P66
     RDKit          3D

 29 30  0  0  0  0  0  0  0  0999 V2000
    9.1667  -11.6684   23.9174 C   0  0  0  0  0  0  0  0  0  0  0  0
    8.2739  -12.0046   25.0605 C   0  0  0  0  0  0  0  0  0  0  0  0
    7.6881  -13.2167   25.3732 C   0  0  0  0  0  0  0  0  0  0  0  0
    6.8012  -13.1884   26.5321 C   0  0  0  0  0  0  0  0  0  0  0  0
    5.9674  -14.4425   26.9925 C   0  0  0  0  0  0  0  0  0  0  0  0
    4.8892  -14.3507   28.1053 C   0  0  0  0  0  0  0  0  0  0  0  0
    4.7842  -13.4333   28.9120 O   0  0  0  0  0  0  0  0  0  0  0  0
    4.0597  -15.4842   28.1390 O   0  0  0  0  0  0  0  0  0  0  0  0
    2.9862  -15.4683   29.1483 C   0  0  0  0  0  0  0  0  0  0  0  0
    1.8486  -16.5117   29.0902 C   0  0  0  0  0  0  0  0  0  0  0  0
    0.6338  -16.2839   29.7400 C   0  0  0  0  0  0  0  0  0  0  0  0
   -0.4208  -17.1411   29.7759 N   0  0  0  0  0  0  0  0  0  0  0  0
   -0.2418  -18.3012   29.1360 C   0  0  0  0  0  0  0  0  0  0  0  0
    0.8765  -18.6610   28.4868 N   0  0  0  0  0  0  0  0  0  0  0  0
    1.8987  -17.7561   28.4924 C   0  0  0  0  0  0  0  0  0  0  0  0
    6.8747  -11.9221   27.0910 C   0  0  0  0  0  0  0  0  0  0  0  0
    7.8700  -10.8200   26.2157 S   0  0  0  0  0  0  0  0  0  0  0  0
    8.7319  -10.8696   23.3073 H   0  0  0  0  0  0  0  0  0  0  0  0
   10.1491  -11.3420   24.2739 H   0  0  0  0  0  0  0  0  0  0  0  0
    9.3168  -12.5387   23.2699 H   0  0  0  0  0  0  0  0  0  0  0  0
    7.8382  -14.1055   24.7706 H   0  0  0  0  0  0  0  0  0  0  0  0
    5.4610  -14.8239   26.0970 H   0  0  0  0  0  0  0  0  0  0  0  0
    6.6922  -15.1969   27.3228 H   0  0  0  0  0  0  0  0  0  0  0  0
    3.4721  -15.5772   30.1252 H   0  0  0  0  0  0  0  0  0  0  0  0
    2.5122  -14.4800   29.0963 H   0  0  0  0  0  0  0  0  0  0  0  0
    0.4594  -15.3515   30.2742 H   0  0  0  0  0  0  0  0  0  0  0  0
   -1.0632  -19.0075   29.1440 H   0  0  0  0  0  0  0  0  0  0  0  0
    2.7922  -18.0832   27.9656 H   0  0  0  0  0  0  0  0  0  0  0  0
    6.3701  -11.5657   27.9791 H   0  0  0  0  0  0  0  0  0  0  0  0
  1  2  1  0
  2  3  2  0
  3  4  1  0
  4  5  1  0
  5  6  1  0
  6  7  2  0
  6  8  1  0
  8  9  1  0
  9 10  1  0
 10 11  2  0
 11 12  1  0
 12 13  2  0
 13 14  1  0
 14 15  2  0
  4 16  2  0
 16 17  1  0
 17  2  1  0
 15 10  1  0
  1 18  1  0
  1 19  1  0
  1 20  1  0
  3 21  1  0
  5 22  1  0
  5 23  1  0
  9 24  1  0
  9 25  1  0
 11 26  1  0
 13 27  1  0
 15 28  1  0
 16 29  1  0
M  END
>  <Energy>  (749) 
18.010194774822054

>  <compound_id>  (749) 
17511

>  <target_id>  (749) 
1

>  <reference_id>  (749) 
66

>  <inspiration_ids>  (749) 
[66, 54]

>  <energy_score>  (749) 
-31.84973766058019

>  <distance_score>  (749) 
15.055440127735212

>  <path>  (749) 
/opt/xchem-fragalysis-2/maxwin/BulkDock/SCRATCH/511014/C17511-P66/C17511-P66.minimised.mol

>  <scratch_subdir>  (749) 
/opt/xchem-fragalysis-2/maxwin/BulkDock/SCRATCH/511014/C17511-P66

>  <fragmenstein_runtime>  (749) 
17.77068567276001

>  <fragmenstein_outcome>  (749) 
too moved

>  <fragmenstein_mode>  (749) 
expansion

>  <fragmenstein_error>  (749) 


$$$$
C17511-P54
     RDKit          3D

 29 30  0  0  0  0  0  0  0  0999 V2000
    6.9182   -9.0648   21.6574 C   0  0  0  0  0  0  0  0  0  0  0  0
    5.5408   -9.4875   21.2610 C   0  0  0  0  0  0  0  0  0  0  0  0
    4.6103  -10.2443   22.0439 C   0  0  0  0  0  0  0  0  0  0  0  0
    2.9270  -10.9421   21.1717 C   0  0  0  0  0  0  0  0  0  0  0  0
    1.6645  -11.9359   21.3035 C   0  0  0  0  0  0  0  0  0  0  0  0
    0.1421  -12.2502   22.3798 C   0  0  0  0  0  0  0  0  0  0  0  0
    0.2799  -11.6036   23.4853 O   0  0  0  0  0  0  0  0  0  0  0  0
   -1.4339  -13.1606   21.9961 O   0  0  0  0  0  0  0  0  0  0  0  0
   -3.2498  -14.0437   21.8843 C   0  0  0  0  0  0  0  0  0  0  0  0
   -4.7112  -15.1398   20.8699 C   0  0  0  0  0  0  0  0  0  0  0  0
   -4.6251  -16.0840   19.7975 C   0  0  0  0  0  0  0  0  0  0  0  0
   -5.6425  -16.8962   19.3965 N   0  0  0  0  0  0  0  0  0  0  0  0
   -6.8333  -16.7549   20.0044 C   0  0  0  0  0  0  0  0  0  0  0  0
   -7.1519  -15.8173   20.8974 N   0  0  0  0  0  0  0  0  0  0  0  0
   -6.1219  -15.0296   21.2860 C   0  0  0  0  0  0  0  0  0  0  0  0
    3.0903  -10.2327   19.6239 C   0  0  0  0  0  0  0  0  0  0  0  0
    4.7793   -8.7556   19.7700 S   0  0  0  0  0  0  0  0  0  0  0  0
    7.0508   -9.1593   22.7402 H   0  0  0  0  0  0  0  0  0  0  0  0
    7.6635   -9.7009   21.1712 H   0  0  0  0  0  0  0  0  0  0  0  0
    7.1105   -8.0212   21.3905 H   0  0  0  0  0  0  0  0  0  0  0  0
    4.8683  -10.7204   23.0029 H   0  0  0  0  0  0  0  0  0  0  0  0
    1.2054  -10.9922   20.9320 H   0  0  0  0  0  0  0  0  0  0  0  0
    2.1015  -12.8356   20.9031 H   0  0  0  0  0  0  0  0  0  0  0  0
   -4.0271  -13.3368   21.9634 H   0  0  0  0  0  0  0  0  0  0  0  0
   -2.9622  -13.7351   20.9174 H   0  0  0  0  0  0  0  0  0  0  0  0
   -3.7179  -16.2734   19.2271 H   0  0  0  0  0  0  0  0  0  0  0  0
   -7.6175  -17.4432   19.7077 H   0  0  0  0  0  0  0  0  0  0  0  0
   -6.4393  -14.3049   22.0123 H   0  0  0  0  0  0  0  0  0  0  0  0
    2.4702   -9.4182   19.4635 H   0  0  0  0  0  0  0  0  0  0  0  0
  1  2  1  0
  2  3  2  0
  3  4  1  0
  4  5  1  0
  5  6  1  0
  6  7  2  0
  6  8  1  0
  8  9  1  0
  9 10  1  0
 10 11  2  0
 11 12  1  0
 12 13  2  0
 13 14  1  0
 14 15  2  0
  4 16  2  0
 16 17  1  0
 17  2  1  0
 15 10  1  0
  1 18  1  0
  1 19  1  0
  1 20  1  0
  3 21  1  0
  5 22  1  0
  5 23  1  0
  9 24  1  0
  9 25  1  0
 11 26  1  0
 13 27  1  0
 15 28  1  0
 16 29  1  0
M  END
>  <Energy>  (750) 
687.81901645862717

>  <compound_id>  (750) 
17511

>  <target_id>  (750) 
1

>  <reference_id>  (750) 
54

>  <inspiration_ids>  (750) 
[66, 54]

>  <energy_score>  (750) 
637.9590840232207

>  <distance_score>  (750) 
13.435920371504714

>  <path>  (750) 
/opt/xchem-fragalysis-2/maxwin/BulkDock/SCRATCH/511014/C17511-P54/C17511-P54.minimised.mol

>  <scratch_subdir>  (750) 
/opt/xchem-fragalysis-2/maxwin/BulkDock/SCRATCH/511014/C17511-P54

>  <fragmenstein_runtime>  (750) 
9.692654848098755

>  <fragmenstein_outcome>  (750) 
too moved

>  <fragmenstein_mode>  (750) 
expansion

>  <fragmenstein_error>  (750) 


$$$$
C17512-P66
     RDKit          3D

 46 47  0  0  0  0  0  0  0  0999 V2000
    7.2849  -18.9267   14.3612 C   0  0  0  0  0  0  0  0  0  0  0  0
    6.1031  -18.0641   14.7968 C   0  0  0  0  0  0  0  0  0  0  0  0
    6.4949  -17.1468   16.0436 C   0  0  0  0  0  0  0  0  0  0  0  0
    5.1236  -15.9114   16.7095 C   0  0  0  0  0  0  0  0  0  0  0  0
    4.7317  -14.4548   18.0916 C   0  0  0  0  0  0  0  0  0  0  0  0
    5.9815  -12.7295   18.9849 C   0  0  0  0  0  0  0  0  0  0  0  0
    6.2869  -10.8344   18.0435 N   0  0  0  0  0  0  0  0  0  0  0  0
    7.5279  -10.1756   16.4222 C   0  0  0  0  0  0  0  0  0  0  0  0
    8.4490  -10.7945   15.8554 O   0  0  0  0  0  0  0  0  0  0  0  0
    7.0324   -8.2891   15.2439 C   0  0  0  0  0  0  0  0  0  0  0  0
    6.6236   -7.9313   13.8887 C   0  0  0  0  0  0  0  0  0  0  0  0
    7.9198   -7.1035   13.0482 C   0  0  0  0  0  0  0  0  0  0  0  0
    8.5361   -5.6721   14.1828 C   0  0  0  0  0  0  0  0  0  0  0  0
   10.1420   -4.5494   14.6001 C   0  0  0  0  0  0  0  0  0  0  0  0
    8.4453   -7.2017   14.8962 S   0  0  0  0  0  0  0  0  0  0  0  0
    3.0751  -15.6509   17.7987 N   0  0  0  0  0  0  0  0  0  0  0  0
    2.7014  -17.1587   16.4772 C   0  0  0  0  0  0  0  0  0  0  0  0
    3.5490  -17.3510   15.6098 O   0  0  0  0  0  0  0  0  0  0  0  0
    1.6762  -18.2741   16.4036 C   0  0  0  0  0  0  0  0  0  0  0  0
    1.5290  -19.2375   15.3437 C   0  0  0  0  0  0  0  0  0  0  0  0
    0.6759  -20.3181   15.1952 N   0  0  0  0  0  0  0  0  0  0  0  0
    0.2615  -20.8221   16.3211 C   0  0  0  0  0  0  0  0  0  0  0  0
    0.7622  -20.3640   17.4356 N   0  0  0  0  0  0  0  0  0  0  0  0
    1.4765  -19.1653   17.4295 C   0  0  0  0  0  0  0  0  0  0  0  0
    6.9974  -19.5605   13.5163 H   0  0  0  0  0  0  0  0  0  0  0  0
    8.1350  -18.3136   14.0478 H   0  0  0  0  0  0  0  0  0  0  0  0
    7.6119  -19.5777   15.1782 H   0  0  0  0  0  0  0  0  0  0  0  0
    5.2785  -18.7521   15.0068 H   0  0  0  0  0  0  0  0  0  0  0  0
    5.7698  -17.4593   13.9482 H   0  0  0  0  0  0  0  0  0  0  0  0
    6.9842  -17.6574   16.8934 H   0  0  0  0  0  0  0  0  0  0  0  0
    7.5607  -16.8939   15.9009 H   0  0  0  0  0  0  0  0  0  0  0  0
    4.2029  -15.8062   16.2395 H   0  0  0  0  0  0  0  0  0  0  0  0
    5.2344  -15.9136   15.6326 H   0  0  0  0  0  0  0  0  0  0  0  0
    3.8425  -13.8115   18.2129 H   0  0  0  0  0  0  0  0  0  0  0  0
    5.0029  -12.3707   19.3372 H   0  0  0  0  0  0  0  0  0  0  0  0
    6.2064  -12.7301   20.0746 H   0  0  0  0  0  0  0  0  0  0  0  0
    5.6630  -10.0879   18.3695 H   0  0  0  0  0  0  0  0  0  0  0  0
    5.6182   -7.7311   13.5828 H   0  0  0  0  0  0  0  0  0  0  0  0
    7.9378   -7.2494   11.9685 H   0  0  0  0  0  0  0  0  0  0  0  0
   10.7842   -4.7899   15.4663 H   0  0  0  0  0  0  0  0  0  0  0  0
    9.7240   -3.5557   14.8558 H   0  0  0  0  0  0  0  0  0  0  0  0
   10.8083   -4.4222   13.7266 H   0  0  0  0  0  0  0  0  0  0  0  0
    2.2878  -15.5408   18.3891 H   0  0  0  0  0  0  0  0  0  0  0  0
    2.2178  -19.2458   14.4922 H   0  0  0  0  0  0  0  0  0  0  0  0
   -0.4085  -21.6669   16.3322 H   0  0  0  0  0  0  0  0  0  0  0  0
    1.9652  -19.0532   18.3675 H   0  0  0  0  0  0  0  0  0  0  0  0
  1  2  1  0
  2  3  1  0
  3  4  1  0
  4  5  1  0
  5  6  1  0
  6  7  1  0
  7  8  1  0
  8  9  2  0
  8 10  1  0
 10 11  2  0
 11 12  1  0
 12 13  2  0
 13 14  1  0
 13 15  1  0
  5 16  1  0
 16 17  1  0
 17 18  2  0
 17 19  1  0
 19 20  2  0
 20 21  1  0
 21 22  2  0
 22 23  1  0
 23 24  2  0
 15 10  1  0
 24 19  1  0
  1 25  1  0
  1 26  1  0
  1 27  1  0
  2 28  1  0
  2 29  1  0
  3 30  1  0
  3 31  1  0
  4 32  1  0
  4 33  1  0
  5 34  1  0
  6 35  1  0
  6 36  1  0
  7 37  1  0
 11 38  1  0
 12 39  1  0
 14 40  1  0
 14 41  1  0
 14 42  1  0
 16 43  1  0
 20 44  1  0
 22 45  1  0
 24 46  1  0
M  END
>  <Energy>  (751) 
1883.8220876113978

>  <compound_id>  (751) 
17512

>  <target_id>  (751) 
1

>  <reference_id>  (751) 
66

>  <inspiration_ids>  (751) 
[66, 54]

>  <energy_score>  (751) 
1848.5870076109884

>  <distance_score>  (751) 
14.360930992681999

>  <path>  (751) 
/opt/xchem-fragalysis-2/maxwin/BulkDock/SCRATCH/511014/C17512-P66/C17512-P66.minimised.mol

>  <scratch_subdir>  (751) 
/opt/xchem-fragalysis-2/maxwin/BulkDock/SCRATCH/511014/C17512-P66

>  <fragmenstein_runtime>  (751) 
46.98021936416626

>  <fragmenstein_outcome>  (751) 
too moved

>  <fragmenstein_mode>  (751) 
expansion

>  <fragmenstein_error>  (751) 


$$$$
C17512-P54
     RDKit          3D

 46 47  0  0  0  0  0  0  0  0999 V2000
   -1.2636  -12.8942   22.2109 C   0  0  0  0  0  0  0  0  0  0  0  0
   -1.5394  -11.9393   23.2803 C   0  0  0  0  0  0  0  0  0  0  0  0
    0.3732  -11.2226   23.6361 C   0  0  0  0  0  0  0  0  0  0  0  0
    1.1430  -11.4934   25.1992 C   0  0  0  0  0  0  0  0  0  0  0  0
    0.7593  -10.9909   26.6411 C   0  0  0  0  0  0  0  0  0  0  0  0
    0.6304   -9.4450   26.8705 C   0  0  0  0  0  0  0  0  0  0  0  0
    1.7306   -8.5964   26.3500 N   0  0  0  0  0  0  0  0  0  0  0  0
    1.7002   -7.3504   25.6096 C   0  0  0  0  0  0  0  0  0  0  0  0
    0.7773   -6.7323   25.1625 O   0  0  0  0  0  0  0  0  0  0  0  0
    3.0681   -6.8010   25.2651 C   0  0  0  0  0  0  0  0  0  0  0  0
    3.3328   -5.6620   24.5010 C   0  0  0  0  0  0  0  0  0  0  0  0
    4.7050   -5.5119   24.1288 C   0  0  0  0  0  0  0  0  0  0  0  0
    5.4847   -6.5106   24.6655 C   0  0  0  0  0  0  0  0  0  0  0  0
    6.9520   -6.7250   24.5197 C   0  0  0  0  0  0  0  0  0  0  0  0
    4.5554   -7.5832   25.6336 S   0  0  0  0  0  0  0  0  0  0  0  0
   -0.2271  -11.9887   27.2143 N   0  0  0  0  0  0  0  0  0  0  0  0
   -1.3755  -11.8043   28.0702 C   0  0  0  0  0  0  0  0  0  0  0  0
   -1.7963  -10.8224   28.6108 O   0  0  0  0  0  0  0  0  0  0  0  0
   -2.2488  -13.0620   28.2222 C   0  0  0  0  0  0  0  0  0  0  0  0
   -1.8310  -14.3835   28.1898 C   0  0  0  0  0  0  0  0  0  0  0  0
   -2.6459  -15.4783   28.2911 N   0  0  0  0  0  0  0  0  0  0  0  0
   -3.9542  -15.2281   28.4592 C   0  0  0  0  0  0  0  0  0  0  0  0
   -4.4925  -14.0028   28.5233 N   0  0  0  0  0  0  0  0  0  0  0  0
   -3.6216  -12.9545   28.4083 C   0  0  0  0  0  0  0  0  0  0  0  0
   -0.2009  -12.8221   22.2932 H   0  0  0  0  0  0  0  0  0  0  0  0
   -1.1665  -12.7176   21.1510 H   0  0  0  0  0  0  0  0  0  0  0  0
   -1.9030  -13.7512   22.3544 H   0  0  0  0  0  0  0  0  0  0  0  0
   -2.3528  -11.2500   23.0323 H   0  0  0  0  0  0  0  0  0  0  0  0
   -2.0769  -12.5085   24.0875 H   0  0  0  0  0  0  0  0  0  0  0  0
    1.0150  -11.2736   22.7614 H   0  0  0  0  0  0  0  0  0  0  0  0
    0.2624  -10.1089   23.6782 H   0  0  0  0  0  0  0  0  0  0  0  0
    2.2042  -11.2713   25.0932 H   0  0  0  0  0  0  0  0  0  0  0  0
    1.1397  -12.5539   25.3821 H   0  0  0  0  0  0  0  0  0  0  0  0
    1.6499  -11.2459   27.2374 H   0  0  0  0  0  0  0  0  0  0  0  0
   -0.2905   -9.0308   26.4632 H   0  0  0  0  0  0  0  0  0  0  0  0
    0.5968   -9.2563   27.9498 H   0  0  0  0  0  0  0  0  0  0  0  0
    2.6838   -8.7837   26.6433 H   0  0  0  0  0  0  0  0  0  0  0  0
    2.5430   -4.9987   24.1641 H   0  0  0  0  0  0  0  0  0  0  0  0
    5.0861   -4.7150   23.5003 H   0  0  0  0  0  0  0  0  0  0  0  0
    7.1591   -7.7106   24.0897 H   0  0  0  0  0  0  0  0  0  0  0  0
    7.3934   -5.9721   23.8584 H   0  0  0  0  0  0  0  0  0  0  0  0
    7.4528   -6.6543   25.4907 H   0  0  0  0  0  0  0  0  0  0  0  0
   -0.1270  -12.9685   27.0051 H   0  0  0  0  0  0  0  0  0  0  0  0
   -0.7797  -14.6414   28.0984 H   0  0  0  0  0  0  0  0  0  0  0  0
   -4.6239  -16.0774   28.5485 H   0  0  0  0  0  0  0  0  0  0  0  0
   -4.0935  -11.9748   28.4672 H   0  0  0  0  0  0  0  0  0  0  0  0
  1  2  1  0
  2  3  1  0
  3  4  1  0
  4  5  1  0
  5  6  1  0
  6  7  1  0
  7  8  1  0
  8  9  2  0
  8 10  1  0
 10 11  2  0
 11 12  1  0
 12 13  2  0
 13 14  1  0
 13 15  1  0
  5 16  1  0
 16 17  1  0
 17 18  2  0
 17 19  1  0
 19 20  2  0
 20 21  1  0
 21 22  2  0
 22 23  1  0
 23 24  2  0
 15 10  1  0
 24 19  1  0
  1 25  1  0
  1 26  1  0
  1 27  1  0
  2 28  1  0
  2 29  1  0
  3 30  1  0
  3 31  1  0
  4 32  1  0
  4 33  1  0
  5 34  1  0
  6 35  1  0
  6 36  1  0
  7 37  1  0
 11 38  1  0
 12 39  1  0
 14 40  1  0
 14 41  1  0
 14 42  1  0
 16 43  1  0
 20 44  1  0
 22 45  1  0
 24 46  1  0
M  END
>  <Energy>  (752) 
157.44229767754325

>  <compound_id>  (752) 
17512

>  <target_id>  (752) 
1

>  <reference_id>  (752) 
54

>  <inspiration_ids>  (752) 
[66, 54]

>  <energy_score>  (752) 
122.20721767708073

>  <distance_score>  (752) 
13.867181683342105

>  <path>  (752) 
/opt/xchem-fragalysis-2/maxwin/BulkDock/SCRATCH/511014/C17512-P54/C17512-P54.minimised.mol

>  <scratch_subdir>  (752) 
/opt/xchem-fragalysis-2/maxwin/BulkDock/SCRATCH/511014/C17512-P54

>  <fragmenstein_runtime>  (752) 
40.02763819694519

>  <fragmenstein_outcome>  (752) 
too moved

>  <fragmenstein_mode>  (752) 
expansion

>  <fragmenstein_error>  (752) 


$$$$
C17513-P66
     RDKit          3D

 41 42  0  0  0  0  0  0  0  0999 V2000
   10.5425   -5.3682   17.6141 C   0  0  0  0  0  0  0  0  0  0  0  0
    9.0904   -6.1461   18.9358 C   0  0  0  0  0  0  0  0  0  0  0  0
    7.2285   -6.8430   18.8913 C   0  0  0  0  0  0  0  0  0  0  0  0
    5.3730   -7.3111   18.3334 C   0  0  0  0  0  0  0  0  0  0  0  0
    4.3711   -9.1688   18.3120 C   0  0  0  0  0  0  0  0  0  0  0  0
    3.8232  -11.0564   17.3997 C   0  0  0  0  0  0  0  0  0  0  0  0
    3.4564  -11.1174   16.2730 O   0  0  0  0  0  0  0  0  0  0  0  0
    3.8422  -12.5187   18.5761 N   0  0  0  0  0  0  0  0  0  0  0  0
    3.1873  -14.3719   18.3971 C   0  0  0  0  0  0  0  0  0  0  0  0
    2.0231  -14.3212   17.6723 C   0  0  0  0  0  0  0  0  0  0  0  0
    3.8809  -14.6241   17.8095 O   0  0  0  0  0  0  0  0  0  0  0  0
    2.7433  -15.8329   16.9778 C   0  0  0  0  0  0  0  0  0  0  0  0
    2.0260  -17.5686   17.4450 N   0  0  0  0  0  0  0  0  0  0  0  0
    2.1496  -18.8826   16.7894 C   0  0  0  0  0  0  0  0  0  0  0  0
    2.7954  -19.2230   15.8379 O   0  0  0  0  0  0  0  0  0  0  0  0
    1.2826  -19.9345   17.6316 C   0  0  0  0  0  0  0  0  0  0  0  0
    0.1146  -19.6547   18.3600 C   0  0  0  0  0  0  0  0  0  0  0  0
   -0.5940  -20.5017   19.1670 N   0  0  0  0  0  0  0  0  0  0  0  0
   -0.1053  -21.7385   19.2410 C   0  0  0  0  0  0  0  0  0  0  0  0
    0.9820  -22.1690   18.5811 N   0  0  0  0  0  0  0  0  0  0  0  0
    1.6460  -21.2522   17.7961 C   0  0  0  0  0  0  0  0  0  0  0  0
    5.5672   -5.9871   17.8713 C   0  0  0  0  0  0  0  0  0  0  0  0
    6.9508   -5.1658   19.3609 S   0  0  0  0  0  0  0  0  0  0  0  0
   11.6152   -4.9764   17.9182 H   0  0  0  0  0  0  0  0  0  0  0  0
   10.4139   -4.5183   16.9021 H   0  0  0  0  0  0  0  0  0  0  0  0
   10.8797   -6.0169   16.7242 H   0  0  0  0  0  0  0  0  0  0  0  0
    7.2270   -6.7509   17.7812 H   0  0  0  0  0  0  0  0  0  0  0  0
    3.2887   -8.8768   18.2472 H   0  0  0  0  0  0  0  0  0  0  0  0
    5.2005   -9.6418   18.7361 H   0  0  0  0  0  0  0  0  0  0  0  0
    4.2697  -12.2464   19.4443 H   0  0  0  0  0  0  0  0  0  0  0  0
    2.7317  -14.6367   19.3802 H   0  0  0  0  0  0  0  0  0  0  0  0
    1.6415  -13.9488   16.7167 H   0  0  0  0  0  0  0  0  0  0  0  0
    1.5385  -13.6671   18.3202 H   0  0  0  0  0  0  0  0  0  0  0  0
    4.4897  -14.9748   17.1349 H   0  0  0  0  0  0  0  0  0  0  0  0
    3.4502  -16.0123   16.1399 H   0  0  0  0  0  0  0  0  0  0  0  0
    1.9895  -15.5421   16.3188 H   0  0  0  0  0  0  0  0  0  0  0  0
    1.4598  -17.6643   18.2694 H   0  0  0  0  0  0  0  0  0  0  0  0
   -0.3521  -18.6822   18.3400 H   0  0  0  0  0  0  0  0  0  0  0  0
   -0.6230  -22.4517   19.8708 H   0  0  0  0  0  0  0  0  0  0  0  0
    2.5363  -21.6387   17.3053 H   0  0  0  0  0  0  0  0  0  0  0  0
    4.9595   -5.2599   17.3761 H   0  0  0  0  0  0  0  0  0  0  0  0
  1  2  1  0
  2  3  2  0
  3  4  1  0
  4  5  1  0
  5  6  1  0
  6  7  2  0
  6  8  1  0
  8  9  1  0
  9 10  1  0
 10 11  1  0
  9 12  1  0
 12 13  1  0
 13 14  1  0
 14 15  2  0
 14 16  1  0
 16 17  2  0
 17 18  1  0
 18 19  2  0
 19 20  1  0
 20 21  2  0
  4 22  2  0
 22 23  1  0
 23  2  1  0
 21 16  1  0
  1 24  1  0
  1 25  1  0
  1 26  1  0
  3 27  1  0
  5 28  1  0
  5 29  1  0
  8 30  1  0
  9 31  1  0
 10 32  1  0
 10 33  1  0
 11 34  1  0
 12 35  1  0
 12 36  1  0
 13 37  1  0
 17 38  1  0
 19 39  1  0
 21 40  1  0
 22 41  1  0
M  END
>  <Energy>  (753) 
1740.7201229665393

>  <compound_id>  (753) 
17513

>  <target_id>  (753) 
1

>  <reference_id>  (753) 
66

>  <inspiration_ids>  (753) 
[66, 54]

>  <energy_score>  (753) 
1662.1233588877753

>  <distance_score>  (753) 
13.392486381337598

>  <path>  (753) 
/opt/xchem-fragalysis-2/maxwin/BulkDock/SCRATCH/511014/C17513-P66/C17513-P66.minimised.mol

>  <scratch_subdir>  (753) 
/opt/xchem-fragalysis-2/maxwin/BulkDock/SCRATCH/511014/C17513-P66

>  <fragmenstein_runtime>  (753) 
20.818687438964844

>  <fragmenstein_outcome>  (753) 
too moved

>  <fragmenstein_mode>  (753) 
expansion

>  <fragmenstein_error>  (753) 


$$$$
C17513-P54
     RDKit          3D

 41 42  0  0  0  0  0  0  0  0999 V2000
    9.6746  -11.9050   23.1206 C   0  0  0  0  0  0  0  0  0  0  0  0
    9.6920  -13.2540   22.4913 C   0  0  0  0  0  0  0  0  0  0  0  0
    8.9589  -14.3729   22.8507 C   0  0  0  0  0  0  0  0  0  0  0  0
    9.1799  -15.5220   22.0101 C   0  0  0  0  0  0  0  0  0  0  0  0
    8.4117  -16.8806   21.9974 C   0  0  0  0  0  0  0  0  0  0  0  0
    7.6540  -17.4068   23.2722 C   0  0  0  0  0  0  0  0  0  0  0  0
    8.0289  -17.0620   24.3583 O   0  0  0  0  0  0  0  0  0  0  0  0
    6.5869  -18.3473   22.8796 N   0  0  0  0  0  0  0  0  0  0  0  0
    5.5673  -19.0938   23.7133 C   0  0  0  0  0  0  0  0  0  0  0  0
    6.2938  -19.9625   24.7543 C   0  0  0  0  0  0  0  0  0  0  0  0
    7.2240  -20.8390   24.1164 O   0  0  0  0  0  0  0  0  0  0  0  0
    4.5551  -19.9616   22.8552 C   0  0  0  0  0  0  0  0  0  0  0  0
    3.1900  -20.2364   23.3895 N   0  0  0  0  0  0  0  0  0  0  0  0
    2.7391  -21.1470   24.4232 C   0  0  0  0  0  0  0  0  0  0  0  0
    3.3589  -21.8536   25.1663 O   0  0  0  0  0  0  0  0  0  0  0  0
    1.2369  -21.2602   24.6170 C   0  0  0  0  0  0  0  0  0  0  0  0
    0.6867  -21.3359   25.8928 C   0  0  0  0  0  0  0  0  0  0  0  0
   -0.6395  -21.4903   26.1805 N   0  0  0  0  0  0  0  0  0  0  0  0
   -1.4451  -21.6305   25.1187 C   0  0  0  0  0  0  0  0  0  0  0  0
   -1.0396  -21.6274   23.8387 N   0  0  0  0  0  0  0  0  0  0  0  0
    0.2962  -21.4329   23.6216 C   0  0  0  0  0  0  0  0  0  0  0  0
   10.1605  -15.1935   21.0732 C   0  0  0  0  0  0  0  0  0  0  0  0
   10.7077  -13.5696   21.1594 S   0  0  0  0  0  0  0  0  0  0  0  0
    9.0098  -11.8870   23.9906 H   0  0  0  0  0  0  0  0  0  0  0  0
    9.3165  -11.1522   22.4106 H   0  0  0  0  0  0  0  0  0  0  0  0
   10.6757  -11.6189   23.4595 H   0  0  0  0  0  0  0  0  0  0  0  0
    8.2639  -14.3582   23.6806 H   0  0  0  0  0  0  0  0  0  0  0  0
    9.1330  -17.6658   21.7347 H   0  0  0  0  0  0  0  0  0  0  0  0
    7.6901  -16.8127   21.1745 H   0  0  0  0  0  0  0  0  0  0  0  0
    6.4882  -18.3359   21.8681 H   0  0  0  0  0  0  0  0  0  0  0  0
    5.0048  -18.3208   24.2451 H   0  0  0  0  0  0  0  0  0  0  0  0
    5.5919  -20.5657   25.3340 H   0  0  0  0  0  0  0  0  0  0  0  0
    6.8538  -19.3402   25.4605 H   0  0  0  0  0  0  0  0  0  0  0  0
    7.9004  -20.2614   23.7213 H   0  0  0  0  0  0  0  0  0  0  0  0
    5.0036  -20.9336   22.6228 H   0  0  0  0  0  0  0  0  0  0  0  0
    4.3803  -19.4483   21.9027 H   0  0  0  0  0  0  0  0  0  0  0  0
    2.3807  -19.8626   22.8999 H   0  0  0  0  0  0  0  0  0  0  0  0
    1.3297  -21.2703   26.7685 H   0  0  0  0  0  0  0  0  0  0  0  0
   -2.5055  -21.7607   25.3039 H   0  0  0  0  0  0  0  0  0  0  0  0
    0.5831  -21.4507   22.5738 H   0  0  0  0  0  0  0  0  0  0  0  0
   10.5560  -15.8316   20.2949 H   0  0  0  0  0  0  0  0  0  0  0  0
  1  2  1  0
  2  3  2  0
  3  4  1  0
  4  5  1  0
  5  6  1  0
  6  7  2  0
  6  8  1  0
  8  9  1  0
  9 10  1  0
 10 11  1  0
  9 12  1  0
 12 13  1  0
 13 14  1  0
 14 15  2  0
 14 16  1  0
 16 17  2  0
 17 18  1  0
 18 19  2  0
 19 20  1  0
 20 21  2  0
  4 22  2  0
 22 23  1  0
 23  2  1  0
 21 16  1  0
  1 24  1  0
  1 25  1  0
  1 26  1  0
  3 27  1  0
  5 28  1  0
  5 29  1  0
  8 30  1  0
  9 31  1  0
 10 32  1  0
 10 33  1  0
 11 34  1  0
 12 35  1  0
 12 36  1  0
 13 37  1  0
 17 38  1  0
 19 39  1  0
 21 40  1  0
 22 41  1  0
M  END
>  <Energy>  (754) 
66.375960924558271

>  <compound_id>  (754) 
17513

>  <target_id>  (754) 
1

>  <reference_id>  (754) 
54

>  <inspiration_ids>  (754) 
[66, 54]

>  <energy_score>  (754) 
-12.220803154248756

>  <distance_score>  (754) 
13.683428744849817

>  <path>  (754) 
/opt/xchem-fragalysis-2/maxwin/BulkDock/SCRATCH/511014/C17513-P54/C17513-P54.minimised.mol

>  <scratch_subdir>  (754) 
/opt/xchem-fragalysis-2/maxwin/BulkDock/SCRATCH/511014/C17513-P54

>  <fragmenstein_runtime>  (754) 
30.28819441795349

>  <fragmenstein_outcome>  (754) 
too moved

>  <fragmenstein_mode>  (754) 
expansion

>  <fragmenstein_error>  (754) 


$$$$
C17514-P66
     RDKit          3D

 40 41  0  0  0  0  0  0  0  0999 V2000
    5.8933  -11.6637   21.1684 C   0  0  0  0  0  0  0  0  0  0  0  0
    4.9172  -12.5787   20.6431 C   0  0  0  0  0  0  0  0  0  0  0  0
    5.1583  -12.6167   19.2364 C   0  0  0  0  0  0  0  0  0  0  0  0
    3.7746  -13.6051   18.4337 C   0  0  0  0  0  0  0  0  0  0  0  0
    3.5241  -15.1011   17.8362 N   0  0  0  0  0  0  0  0  0  0  0  0
    2.4938  -15.6650   16.5061 C   0  0  0  0  0  0  0  0  0  0  0  0
    1.8460  -14.9682   15.7478 O   0  0  0  0  0  0  0  0  0  0  0  0
    2.3293  -17.4120   16.0113 C   0  0  0  0  0  0  0  0  0  0  0  0
    1.7743  -17.5608   14.7514 C   0  0  0  0  0  0  0  0  0  0  0  0
    0.9977  -18.6108   14.3180 N   0  0  0  0  0  0  0  0  0  0  0  0
    0.6986  -19.5787   15.1978 C   0  0  0  0  0  0  0  0  0  0  0  0
    1.1046  -19.6002   16.4549 N   0  0  0  0  0  0  0  0  0  0  0  0
    1.8511  -18.5145   16.8129 C   0  0  0  0  0  0  0  0  0  0  0  0
    6.0453  -11.0520   18.7734 N   0  0  0  0  0  0  0  0  0  0  0  0
    7.6740  -10.5079   19.1141 C   0  0  0  0  0  0  0  0  0  0  0  0
    8.4543  -11.1982   19.6527 O   0  0  0  0  0  0  0  0  0  0  0  0
    8.2625   -9.1756   18.9271 C   0  0  0  0  0  0  0  0  0  0  0  0
    9.5494   -9.1012   19.5079 C   0  0  0  0  0  0  0  0  0  0  0  0
    9.6635   -7.8610   20.0620 C   0  0  0  0  0  0  0  0  0  0  0  0
    9.4557   -6.2862   19.0058 C   0  0  0  0  0  0  0  0  0  0  0  0
   10.6453   -5.3759   17.5534 C   0  0  0  0  0  0  0  0  0  0  0  0
    7.1998   -7.1155   19.1824 S   0  0  0  0  0  0  0  0  0  0  0  0
    6.3132  -10.9710   20.5612 H   0  0  0  0  0  0  0  0  0  0  0  0
    6.7245  -12.3297   21.3737 H   0  0  0  0  0  0  0  0  0  0  0  0
    5.5442  -11.0158   21.9820 H   0  0  0  0  0  0  0  0  0  0  0  0
    3.9447  -12.6296   21.0909 H   0  0  0  0  0  0  0  0  0  0  0  0
    5.2855  -13.5212   20.9364 H   0  0  0  0  0  0  0  0  0  0  0  0
    5.9310  -13.3644   19.2449 H   0  0  0  0  0  0  0  0  0  0  0  0
    3.2718  -14.0171   19.2696 H   0  0  0  0  0  0  0  0  0  0  0  0
    3.2915  -12.7554   18.0132 H   0  0  0  0  0  0  0  0  0  0  0  0
    3.8650  -15.8718   18.3399 H   0  0  0  0  0  0  0  0  0  0  0  0
    1.8460  -16.7539   14.0230 H   0  0  0  0  0  0  0  0  0  0  0  0
    0.0835  -20.3987   14.8475 H   0  0  0  0  0  0  0  0  0  0  0  0
    1.8609  -18.4771   17.8909 H   0  0  0  0  0  0  0  0  0  0  0  0
    5.5168  -10.2785   18.3836 H   0  0  0  0  0  0  0  0  0  0  0  0
   10.2220   -9.9289   19.6822 H   0  0  0  0  0  0  0  0  0  0  0  0
   10.5150   -7.6909   20.7688 H   0  0  0  0  0  0  0  0  0  0  0  0
   10.4337   -4.5144   16.9003 H   0  0  0  0  0  0  0  0  0  0  0  0
   10.9696   -6.0140   16.6551 H   0  0  0  0  0  0  0  0  0  0  0  0
   11.6926   -4.9506   17.8652 H   0  0  0  0  0  0  0  0  0  0  0  0
  1  2  1  0
  2  3  1  0
  3  4  1  0
  4  5  1  0
  5  6  1  0
  6  7  2  0
  6  8  1  0
  8  9  2  0
  9 10  1  0
 10 11  2  0
 11 12  1  0
 12 13  2  0
  3 14  1  0
 14 15  1  0
 15 16  2  0
 15 17  1  0
 17 18  2  0
 18 19  1  0
 19 20  2  0
 20 21  1  0
 20 22  1  0
 13  8  1  0
 22 17  1  0
  1 23  1  0
  1 24  1  0
  1 25  1  0
  2 26  1  0
  2 27  1  0
  3 28  1  0
  4 29  1  0
  4 30  1  0
  5 31  1  0
  9 32  1  0
 11 33  1  0
 13 34  1  0
 14 35  1  0
 18 36  1  0
 19 37  1  0
 21 38  1  0
 21 39  1  0
 21 40  1  0
M  END
>  <Energy>  (755) 
757.76847109063385

>  <compound_id>  (755) 
17514

>  <target_id>  (755) 
1

>  <reference_id>  (755) 
66

>  <inspiration_ids>  (755) 
[66, 54]

>  <energy_score>  (755) 
731.9017767459752

>  <distance_score>  (755) 
15.170982886400632

>  <path>  (755) 
/opt/xchem-fragalysis-2/maxwin/BulkDock/SCRATCH/511014/C17514-P66/C17514-P66.minimised.mol

>  <scratch_subdir>  (755) 
/opt/xchem-fragalysis-2/maxwin/BulkDock/SCRATCH/511014/C17514-P66

>  <fragmenstein_runtime>  (755) 
40.855146408081055

>  <fragmenstein_outcome>  (755) 
too moved

>  <fragmenstein_mode>  (755) 
expansion

>  <fragmenstein_error>  (755) 


$$$$
C17514-P54
     RDKit          3D

 40 41  0  0  0  0  0  0  0  0999 V2000
    3.4153  -12.1084   23.9580 C   0  0  0  0  0  0  0  0  0  0  0  0
    3.4384  -12.6170   22.4569 C   0  0  0  0  0  0  0  0  0  0  0  0
    3.0497  -14.1203   21.3304 C   0  0  0  0  0  0  0  0  0  0  0  0
    2.4902  -15.8431   22.6284 C   0  0  0  0  0  0  0  0  0  0  0  0
    0.9713  -17.2490   23.0763 N   0  0  0  0  0  0  0  0  0  0  0  0
   -0.4799  -17.8146   22.1096 C   0  0  0  0  0  0  0  0  0  0  0  0
   -0.8243  -17.3361   21.0305 O   0  0  0  0  0  0  0  0  0  0  0  0
   -1.7898  -19.1961   22.6851 C   0  0  0  0  0  0  0  0  0  0  0  0
   -2.8768  -19.0533   23.6182 C   0  0  0  0  0  0  0  0  0  0  0  0
   -3.7837  -19.9586   24.1398 N   0  0  0  0  0  0  0  0  0  0  0  0
   -3.6294  -21.2103   23.7426 C   0  0  0  0  0  0  0  0  0  0  0  0
   -2.6030  -21.6106   23.0080 N   0  0  0  0  0  0  0  0  0  0  0  0
   -1.7369  -20.6227   22.5509 C   0  0  0  0  0  0  0  0  0  0  0  0
    4.5878  -13.2508   20.5382 N   0  0  0  0  0  0  0  0  0  0  0  0
    4.9393  -12.1554   18.6391 C   0  0  0  0  0  0  0  0  0  0  0  0
    4.0291  -11.8984   17.8541 O   0  0  0  0  0  0  0  0  0  0  0  0
    6.7574  -11.2339   17.9427 C   0  0  0  0  0  0  0  0  0  0  0  0
    7.5924  -10.4912   16.2821 C   0  0  0  0  0  0  0  0  0  0  0  0
    9.6436   -9.6271   16.0817 C   0  0  0  0  0  0  0  0  0  0  0  0
   10.1731   -9.3243   18.1050 C   0  0  0  0  0  0  0  0  0  0  0  0
   11.3579   -8.8236   18.8675 C   0  0  0  0  0  0  0  0  0  0  0  0
    8.2467  -10.1769   19.5671 S   0  0  0  0  0  0  0  0  0  0  0  0
    2.4497  -11.7306   24.3214 H   0  0  0  0  0  0  0  0  0  0  0  0
    4.0831  -11.2609   24.1038 H   0  0  0  0  0  0  0  0  0  0  0  0
    3.6759  -12.8684   24.6950 H   0  0  0  0  0  0  0  0  0  0  0  0
    4.4724  -12.7784   22.5308 H   0  0  0  0  0  0  0  0  0  0  0  0
    2.9039  -11.8504   21.8836 H   0  0  0  0  0  0  0  0  0  0  0  0
    3.9270  -14.6636   21.6836 H   0  0  0  0  0  0  0  0  0  0  0  0
    3.1051  -16.6681   22.2989 H   0  0  0  0  0  0  0  0  0  0  0  0
    2.9100  -15.6926   23.6403 H   0  0  0  0  0  0  0  0  0  0  0  0
    1.0757  -17.7994   23.7962 H   0  0  0  0  0  0  0  0  0  0  0  0
   -2.9510  -18.1573   24.2294 H   0  0  0  0  0  0  0  0  0  0  0  0
   -4.3478  -21.9520   24.0689 H   0  0  0  0  0  0  0  0  0  0  0  0
   -0.8993  -21.1338   22.0738 H   0  0  0  0  0  0  0  0  0  0  0  0
    5.4758  -13.4587   21.0295 H   0  0  0  0  0  0  0  0  0  0  0  0
    7.1408  -10.7712   15.3257 H   0  0  0  0  0  0  0  0  0  0  0  0
   10.1889   -9.4786   15.1560 H   0  0  0  0  0  0  0  0  0  0  0  0
   11.0510   -8.0368   19.5615 H   0  0  0  0  0  0  0  0  0  0  0  0
   12.1000   -8.4164   18.1758 H   0  0  0  0  0  0  0  0  0  0  0  0
   11.8113   -9.6415   19.4336 H   0  0  0  0  0  0  0  0  0  0  0  0
  1  2  1  0
  2  3  1  0
  3  4  1  0
  4  5  1  0
  5  6  1  0
  6  7  2  0
  6  8  1  0
  8  9  2  0
  9 10  1  0
 10 11  2  0
 11 12  1  0
 12 13  2  0
  3 14  1  0
 14 15  1  0
 15 16  2  0
 15 17  1  0
 17 18  2  0
 18 19  1  0
 19 20  2  0
 20 21  1  0
 20 22  1  0
 13  8  1  0
 22 17  1  0
  1 23  1  0
  1 24  1  0
  1 25  1  0
  2 26  1  0
  2 27  1  0
  3 28  1  0
  4 29  1  0
  4 30  1  0
  5 31  1  0
  9 32  1  0
 11 33  1  0
 13 34  1  0
 14 35  1  0
 18 36  1  0
 19 37  1  0
 21 38  1  0
 21 39  1  0
 21 40  1  0
M  END
>  <Energy>  (756) 
2004.0484512626119

>  <compound_id>  (756) 
17514

>  <target_id>  (756) 
1

>  <reference_id>  (756) 
54

>  <inspiration_ids>  (756) 
[66, 54]

>  <energy_score>  (756) 
1978.1817569179875

>  <distance_score>  (756) 
11.67176330661631

>  <path>  (756) 
/opt/xchem-fragalysis-2/maxwin/BulkDock/SCRATCH/511014/C17514-P54/C17514-P54.minimised.mol

>  <scratch_subdir>  (756) 
/opt/xchem-fragalysis-2/maxwin/BulkDock/SCRATCH/511014/C17514-P54

>  <fragmenstein_runtime>  (756) 
21.43342423439026

>  <fragmenstein_outcome>  (756) 
too moved

>  <fragmenstein_mode>  (756) 
expansion

>  <fragmenstein_error>  (756) 


$$$$
C17515-P66
     RDKit          3D

 40 41  0  0  0  0  0  0  0  0999 V2000
    7.0229  -15.1315   28.1920 C   0  0  0  0  0  0  0  0  0  0  0  0
    6.3605  -15.2977   29.5458 C   0  0  0  0  0  0  0  0  0  0  0  0
    5.0773  -14.4960   29.8091 C   0  0  0  0  0  0  0  0  0  0  0  0
    5.0651  -12.9453   29.5245 C   0  0  0  0  0  0  0  0  0  0  0  0
    5.9560  -12.2481   28.5751 N   0  0  0  0  0  0  0  0  0  0  0  0
    5.9801  -10.8685   28.1361 C   0  0  0  0  0  0  0  0  0  0  0  0
    5.2332   -9.9632   28.3727 O   0  0  0  0  0  0  0  0  0  0  0  0
    7.1009  -10.5218   27.1860 C   0  0  0  0  0  0  0  0  0  0  0  0
    7.2857   -9.2817   26.5621 C   0  0  0  0  0  0  0  0  0  0  0  0
    8.4158   -9.2196   25.6920 C   0  0  0  0  0  0  0  0  0  0  0  0
    9.1113  -10.4068   25.6965 C   0  0  0  0  0  0  0  0  0  0  0  0
   10.3972  -10.7332   25.0180 C   0  0  0  0  0  0  0  0  0  0  0  0
    8.3240  -11.5964   26.6573 S   0  0  0  0  0  0  0  0  0  0  0  0
    3.8204  -15.2609   29.5148 N   0  0  0  0  0  0  0  0  0  0  0  0
    2.7250  -15.6682   30.3870 C   0  0  0  0  0  0  0  0  0  0  0  0
    2.5159  -15.4256   31.5434 O   0  0  0  0  0  0  0  0  0  0  0  0
    1.6174  -16.5414   29.8153 C   0  0  0  0  0  0  0  0  0  0  0  0
    1.7507  -17.5856   28.9253 C   0  0  0  0  0  0  0  0  0  0  0  0
    0.7342  -18.4219   28.5463 N   0  0  0  0  0  0  0  0  0  0  0  0
   -0.4700  -18.2008   29.1012 C   0  0  0  0  0  0  0  0  0  0  0  0
   -0.7405  -17.2337   29.9818 N   0  0  0  0  0  0  0  0  0  0  0  0
    0.3188  -16.4443   30.3245 C   0  0  0  0  0  0  0  0  0  0  0  0
    7.5024  -16.0675   27.8878 H   0  0  0  0  0  0  0  0  0  0  0  0
    6.3140  -14.8273   27.4197 H   0  0  0  0  0  0  0  0  0  0  0  0
    7.8301  -14.3958   28.2442 H   0  0  0  0  0  0  0  0  0  0  0  0
    6.1482  -16.3625   29.7055 H   0  0  0  0  0  0  0  0  0  0  0  0
    7.1031  -15.0266   30.3080 H   0  0  0  0  0  0  0  0  0  0  0  0
    5.0213  -14.5090   30.9097 H   0  0  0  0  0  0  0  0  0  0  0  0
    5.2887  -12.4481   30.4785 H   0  0  0  0  0  0  0  0  0  0  0  0
    4.0429  -12.6326   29.2885 H   0  0  0  0  0  0  0  0  0  0  0  0
    6.7907  -12.7112   28.2480 H   0  0  0  0  0  0  0  0  0  0  0  0
    6.6130   -8.4474   26.7299 H   0  0  0  0  0  0  0  0  0  0  0  0
    8.7100   -8.3380   25.1354 H   0  0  0  0  0  0  0  0  0  0  0  0
   10.3356  -11.6898   24.4901 H   0  0  0  0  0  0  0  0  0  0  0  0
   11.2097  -10.7922   25.7495 H   0  0  0  0  0  0  0  0  0  0  0  0
   10.6589   -9.9629   24.2851 H   0  0  0  0  0  0  0  0  0  0  0  0
    3.6302  -15.5823   28.5714 H   0  0  0  0  0  0  0  0  0  0  0  0
    2.7123  -17.8306   28.4833 H   0  0  0  0  0  0  0  0  0  0  0  0
   -1.2824  -18.8556   28.8088 H   0  0  0  0  0  0  0  0  0  0  0  0
    0.0807  -15.6916   31.0751 H   0  0  0  0  0  0  0  0  0  0  0  0
  1  2  1  0
  2  3  1  0
  3  4  1  0
  4  5  1  0
  5  6  1  0
  6  7  2  0
  6  8  1  0
  8  9  2  0
  9 10  1  0
 10 11  2  0
 11 12  1  0
 11 13  1  0
  3 14  1  0
 14 15  1  0
 15 16  2  0
 15 17  1  0
 17 18  2  0
 18 19  1  0
 19 20  2  0
 20 21  1  0
 21 22  2  0
 13  8  1  0
 22 17  1  0
  1 23  1  0
  1 24  1  0
  1 25  1  0
  2 26  1  0
  2 27  1  0
  3 28  1  0
  4 29  1  0
  4 30  1  0
  5 31  1  0
  9 32  1  0
 10 33  1  0
 12 34  1  0
 12 35  1  0
 12 36  1  0
 14 37  1  0
 18 38  1  0
 20 39  1  0
 22 40  1  0
M  END
>  <Energy>  (757) 
39.362624171925923

>  <compound_id>  (757) 
17515

>  <target_id>  (757) 
1

>  <reference_id>  (757) 
66

>  <inspiration_ids>  (757) 
[66, 54]

>  <energy_score>  (757) 
-8.201180356317991

>  <distance_score>  (757) 
14.66977277847916

>  <path>  (757) 
/opt/xchem-fragalysis-2/maxwin/BulkDock/SCRATCH/511014/C17515-P66/C17515-P66.minimised.mol

>  <scratch_subdir>  (757) 
/opt/xchem-fragalysis-2/maxwin/BulkDock/SCRATCH/511014/C17515-P66

>  <fragmenstein_runtime>  (757) 
39.093173027038574

>  <fragmenstein_outcome>  (757) 
too moved

>  <fragmenstein_mode>  (757) 
expansion

>  <fragmenstein_error>  (757) 


$$$$
C17515-P54
     RDKit          3D

 40 41  0  0  0  0  0  0  0  0999 V2000
    3.8558  -13.4361   21.8662 C   0  0  0  0  0  0  0  0  0  0  0  0
    2.7728  -12.4855   21.3390 C   0  0  0  0  0  0  0  0  0  0  0  0
    1.4667  -11.7169   21.4444 C   0  0  0  0  0  0  0  0  0  0  0  0
    1.5078  -10.4455   20.1851 C   0  0  0  0  0  0  0  0  0  0  0  0
    3.0273  -10.2700   19.6382 N   0  0  0  0  0  0  0  0  0  0  0  0
    4.1965   -8.8788   19.7854 C   0  0  0  0  0  0  0  0  0  0  0  0
    3.8946   -7.8422   20.2294 O   0  0  0  0  0  0  0  0  0  0  0  0
    5.6162   -8.8873   19.5766 C   0  0  0  0  0  0  0  0  0  0  0  0
    6.1591   -7.5186   20.2154 C   0  0  0  0  0  0  0  0  0  0  0  0
    7.3571   -7.3576   20.9952 C   0  0  0  0  0  0  0  0  0  0  0  0
    7.8504   -8.5702   21.3393 C   0  0  0  0  0  0  0  0  0  0  0  0
    9.0971   -8.9028   22.0816 C   0  0  0  0  0  0  0  0  0  0  0  0
    6.5963   -9.6942   21.2046 S   0  0  0  0  0  0  0  0  0  0  0  0
    0.1614  -12.1004   22.6437 N   0  0  0  0  0  0  0  0  0  0  0  0
   -1.3944  -12.9345   22.4617 C   0  0  0  0  0  0  0  0  0  0  0  0
   -1.7206  -13.4496   21.4562 O   0  0  0  0  0  0  0  0  0  0  0  0
   -2.7962  -13.0187   23.6819 C   0  0  0  0  0  0  0  0  0  0  0  0
   -3.9396  -13.7385   23.2211 C   0  0  0  0  0  0  0  0  0  0  0  0
   -5.0156  -14.2479   23.9193 N   0  0  0  0  0  0  0  0  0  0  0  0
   -4.9787  -14.0809   25.2324 C   0  0  0  0  0  0  0  0  0  0  0  0
   -3.9743  -13.4841   25.8650 N   0  0  0  0  0  0  0  0  0  0  0  0
   -2.9304  -13.0299   25.0817 C   0  0  0  0  0  0  0  0  0  0  0  0
    4.7772  -13.5218   21.4207 H   0  0  0  0  0  0  0  0  0  0  0  0
    4.1037  -13.0825   22.8668 H   0  0  0  0  0  0  0  0  0  0  0  0
    3.6718  -14.5062   21.7197 H   0  0  0  0  0  0  0  0  0  0  0  0
    2.2174  -13.3088   21.0564 H   0  0  0  0  0  0  0  0  0  0  0  0
    3.0370  -11.9356   22.2376 H   0  0  0  0  0  0  0  0  0  0  0  0
    1.6189  -11.0064   22.1911 H   0  0  0  0  0  0  0  0  0  0  0  0
    0.4880  -10.3546   19.7872 H   0  0  0  0  0  0  0  0  0  0  0  0
    1.4781   -9.8492   21.0228 H   0  0  0  0  0  0  0  0  0  0  0  0
    3.4565  -11.0079   19.1559 H   0  0  0  0  0  0  0  0  0  0  0  0
    5.5837   -6.6143   19.9923 H   0  0  0  0  0  0  0  0  0  0  0  0
    7.7876   -6.4073   21.2925 H   0  0  0  0  0  0  0  0  0  0  0  0
    9.5573   -9.8122   21.6810 H   0  0  0  0  0  0  0  0  0  0  0  0
    9.8290   -8.0933   21.9924 H   0  0  0  0  0  0  0  0  0  0  0  0
    8.8882   -9.0565   23.1454 H   0  0  0  0  0  0  0  0  0  0  0  0
    0.1964  -11.6614   23.5435 H   0  0  0  0  0  0  0  0  0  0  0  0
   -4.0356  -14.0074   22.1686 H   0  0  0  0  0  0  0  0  0  0  0  0
   -5.8057  -14.4556   25.8219 H   0  0  0  0  0  0  0  0  0  0  0  0
   -2.1079  -12.7582   25.7321 H   0  0  0  0  0  0  0  0  0  0  0  0
  1  2  1  0
  2  3  1  0
  3  4  1  0
  4  5  1  0
  5  6  1  0
  6  7  2  0
  6  8  1  0
  8  9  2  0
  9 10  1  0
 10 11  2  0
 11 12  1  0
 11 13  1  0
  3 14  1  0
 14 15  1  0
 15 16  2  0
 15 17  1  0
 17 18  2  0
 18 19  1  0
 19 20  2  0
 20 21  1  0
 21 22  2  0
 13  8  1  0
 22 17  1  0
  1 23  1  0
  1 24  1  0
  1 25  1  0
  2 26  1  0
  2 27  1  0
  3 28  1  0
  4 29  1  0
  4 30  1  0
  5 31  1  0
  9 32  1  0
 10 33  1  0
 12 34  1  0
 12 35  1  0
 12 36  1  0
 14 37  1  0
 18 38  1  0
 20 39  1  0
 22 40  1  0
M  END
>  <Energy>  (758) 
506.02786697719375

>  <compound_id>  (758) 
17515

>  <target_id>  (758) 
1

>  <reference_id>  (758) 
54

>  <inspiration_ids>  (758) 
[66, 54]

>  <energy_score>  (758) 
458.464062448955

>  <distance_score>  (758) 
12.46919891271215

>  <path>  (758) 
/opt/xchem-fragalysis-2/maxwin/BulkDock/SCRATCH/511014/C17515-P54/C17515-P54.minimised.mol

>  <scratch_subdir>  (758) 
/opt/xchem-fragalysis-2/maxwin/BulkDock/SCRATCH/511014/C17515-P54

>  <fragmenstein_runtime>  (758) 
15.15803575515747

>  <fragmenstein_outcome>  (758) 
too moved

>  <fragmenstein_mode>  (758) 
expansion

>  <fragmenstein_error>  (758) 


$$$$
C17516-P66
     RDKit          3D

 46 47  0  0  0  0  0  0  0  0999 V2000
   14.9495   -5.9364   22.1934 C   0  0  0  0  0  0  0  0  0  0  0  0
   13.5025   -6.1475   21.9106 C   0  0  0  0  0  0  0  0  0  0  0  0
   12.5754   -5.2396   21.4690 C   0  0  0  0  0  0  0  0  0  0  0  0
   11.2711   -5.8114   21.3623 C   0  0  0  0  0  0  0  0  0  0  0  0
   11.2462   -7.1938   21.4779 C   0  0  0  0  0  0  0  0  0  0  0  0
   10.2005   -8.2997   21.4292 C   0  0  0  0  0  0  0  0  0  0  0  0
   10.0671   -8.7977   22.5543 O   0  0  0  0  0  0  0  0  0  0  0  0
    9.4648   -8.7749   19.8626 N   0  0  0  0  0  0  0  0  0  0  0  0
    8.1453  -10.2642   19.3717 C   0  0  0  0  0  0  0  0  0  0  0  0
    9.0731  -10.8141   17.9645 C   0  0  0  0  0  0  0  0  0  0  0  0
    6.4791  -11.2473   20.0601 C   0  0  0  0  0  0  0  0  0  0  0  0
    5.0066  -12.5939   20.2811 C   0  0  0  0  0  0  0  0  0  0  0  0
    3.4683  -13.5159   20.9140 N   0  0  0  0  0  0  0  0  0  0  0  0
    2.3392  -14.7633   20.0809 C   0  0  0  0  0  0  0  0  0  0  0  0
    2.5257  -14.9931   18.9032 O   0  0  0  0  0  0  0  0  0  0  0  0
    0.8250  -16.0628   20.8280 C   0  0  0  0  0  0  0  0  0  0  0  0
   -0.0275  -17.8147   21.5074 C   0  0  0  0  0  0  0  0  0  0  0  0
   -0.2088  -19.3987   22.7227 C   0  0  0  0  0  0  0  0  0  0  0  0
   -1.3428  -20.1059   23.1339 C   0  0  0  0  0  0  0  0  0  0  0  0
   -1.7470  -21.4184   23.0292 N   0  0  0  0  0  0  0  0  0  0  0  0
   -0.7364  -22.2604   23.0837 C   0  0  0  0  0  0  0  0  0  0  0  0
    0.5295  -21.8603   23.0732 N   0  0  0  0  0  0  0  0  0  0  0  0
    0.7541  -20.5217   22.7960 C   0  0  0  0  0  0  0  0  0  0  0  0
   12.7755   -7.6525   22.2442 S   0  0  0  0  0  0  0  0  0  0  0  0
   15.2666   -4.9354   21.8824 H   0  0  0  0  0  0  0  0  0  0  0  0
   15.5620   -6.6636   21.6500 H   0  0  0  0  0  0  0  0  0  0  0  0
   15.1544   -6.0364   23.2643 H   0  0  0  0  0  0  0  0  0  0  0  0
   12.8062   -4.1974   21.2940 H   0  0  0  0  0  0  0  0  0  0  0  0
   10.4235   -5.1887   21.1531 H   0  0  0  0  0  0  0  0  0  0  0  0
    9.6950   -8.1642   19.2059 H   0  0  0  0  0  0  0  0  0  0  0  0
    7.6740   -9.6954   18.7186 H   0  0  0  0  0  0  0  0  0  0  0  0
   10.0933  -11.1095   18.2355 H   0  0  0  0  0  0  0  0  0  0  0  0
    8.6982  -11.4894   17.1975 H   0  0  0  0  0  0  0  0  0  0  0  0
    9.0877  -10.0424   17.2190 H   0  0  0  0  0  0  0  0  0  0  0  0
    6.1064  -11.1547   19.0458 H   0  0  0  0  0  0  0  0  0  0  0  0
    7.0742  -12.0948   20.3556 H   0  0  0  0  0  0  0  0  0  0  0  0
    4.7191  -11.9029   21.0545 H   0  0  0  0  0  0  0  0  0  0  0  0
    4.6333  -12.6083   19.2746 H   0  0  0  0  0  0  0  0  0  0  0  0
    3.1374  -13.3713   21.8558 H   0  0  0  0  0  0  0  0  0  0  0  0
    0.1794  -16.1698   19.9774 H   0  0  0  0  0  0  0  0  0  0  0  0
    0.3868  -15.5582   21.6914 H   0  0  0  0  0  0  0  0  0  0  0  0
    0.8127  -18.3170   21.1527 H   0  0  0  0  0  0  0  0  0  0  0  0
   -0.9581  -17.8463   20.9305 H   0  0  0  0  0  0  0  0  0  0  0  0
   -1.4294  -20.0274   24.2480 H   0  0  0  0  0  0  0  0  0  0  0  0
   -0.9406  -23.3209   23.1375 H   0  0  0  0  0  0  0  0  0  0  0  0
    1.7841  -20.4212   22.4287 H   0  0  0  0  0  0  0  0  0  0  0  0
  1  2  1  0
  2  3  2  0
  3  4  1  0
  4  5  2  0
  5  6  1  0
  6  7  2  0
  6  8  1  0
  8  9  1  0
  9 10  1  0
  9 11  1  0
 11 12  1  0
 12 13  1  0
 13 14  1  0
 14 15  2  0
 14 16  1  0
 16 17  1  0
 17 18  1  0
 18 19  2  0
 19 20  1  0
 20 21  2  0
 21 22  1  0
 22 23  2  0
  5 24  1  0
 24  2  1  0
 23 18  1  0
  1 25  1  0
  1 26  1  0
  1 27  1  0
  3 28  1  0
  4 29  1  0
  8 30  1  0
  9 31  1  0
 10 32  1  0
 10 33  1  0
 10 34  1  0
 11 35  1  0
 11 36  1  0
 12 37  1  0
 12 38  1  0
 13 39  1  0
 16 40  1  0
 16 41  1  0
 17 42  1  0
 17 43  1  0
 19 44  1  0
 21 45  1  0
 23 46  1  0
M  END
>  <Energy>  (759) 
993.17503192332913

>  <compound_id>  (759) 
17516

>  <target_id>  (759) 
1

>  <reference_id>  (759) 
66

>  <inspiration_ids>  (759) 
[66, 54]

>  <energy_score>  (759) 
985.3634565050639

>  <distance_score>  (759) 
10.800629923506685

>  <path>  (759) 
/opt/xchem-fragalysis-2/maxwin/BulkDock/SCRATCH/511014/C17516-P66/C17516-P66.minimised.mol

>  <scratch_subdir>  (759) 
/opt/xchem-fragalysis-2/maxwin/BulkDock/SCRATCH/511014/C17516-P66

>  <fragmenstein_runtime>  (759) 
25.35693597793579

>  <fragmenstein_outcome>  (759) 
too moved

>  <fragmenstein_mode>  (759) 
expansion

>  <fragmenstein_error>  (759) 


$$$$
C17516-P54
     RDKit          3D

 46 47  0  0  0  0  0  0  0  0999 V2000
   11.8794   -5.5393   19.2948 C   0  0  0  0  0  0  0  0  0  0  0  0
   11.2136   -6.7654   19.8193 C   0  0  0  0  0  0  0  0  0  0  0  0
   11.6895   -8.0575   19.8314 C   0  0  0  0  0  0  0  0  0  0  0  0
   10.7720   -8.9712   20.4401 C   0  0  0  0  0  0  0  0  0  0  0  0
    9.5858   -8.3756   20.8268 C   0  0  0  0  0  0  0  0  0  0  0  0
    8.3540   -9.0165   21.3800 C   0  0  0  0  0  0  0  0  0  0  0  0
    8.4267   -9.9863   22.0736 O   0  0  0  0  0  0  0  0  0  0  0  0
    7.2150   -8.2758   20.9251 N   0  0  0  0  0  0  0  0  0  0  0  0
    5.8128   -8.4064   21.2354 C   0  0  0  0  0  0  0  0  0  0  0  0
    5.5647   -6.9009   21.7380 C   0  0  0  0  0  0  0  0  0  0  0  0
    4.4630   -9.2023   20.1154 C   0  0  0  0  0  0  0  0  0  0  0  0
    2.7940  -10.5150   20.0336 C   0  0  0  0  0  0  0  0  0  0  0  0
    1.3430  -10.8035   21.2511 N   0  0  0  0  0  0  0  0  0  0  0  0
    0.4429  -12.2768   21.7381 C   0  0  0  0  0  0  0  0  0  0  0  0
    0.9019  -13.2182   21.2784 O   0  0  0  0  0  0  0  0  0  0  0  0
   -1.3351  -12.6567   22.7700 C   0  0  0  0  0  0  0  0  0  0  0  0
   -2.3318  -13.0865   24.5334 C   0  0  0  0  0  0  0  0  0  0  0  0
   -2.6548  -14.7986   25.4617 C   0  0  0  0  0  0  0  0  0  0  0  0
   -2.0180  -16.0776   25.4173 C   0  0  0  0  0  0  0  0  0  0  0  0
   -2.4587  -17.4579   26.0058 N   0  0  0  0  0  0  0  0  0  0  0  0
   -3.7230  -17.6060   26.6536 C   0  0  0  0  0  0  0  0  0  0  0  0
   -4.5599  -16.4965   26.8652 N   0  0  0  0  0  0  0  0  0  0  0  0
   -3.8276  -15.1342   26.3314 C   0  0  0  0  0  0  0  0  0  0  0  0
    9.6711   -6.6701   20.5434 S   0  0  0  0  0  0  0  0  0  0  0  0
   11.7166   -4.6802   19.9537 H   0  0  0  0  0  0  0  0  0  0  0  0
   11.4930   -5.2948   18.3004 H   0  0  0  0  0  0  0  0  0  0  0  0
   12.9604   -5.6916   19.2090 H   0  0  0  0  0  0  0  0  0  0  0  0
   12.6592   -8.3436   19.4399 H   0  0  0  0  0  0  0  0  0  0  0  0
   10.9476  -10.0359   20.5500 H   0  0  0  0  0  0  0  0  0  0  0  0
    7.5318   -7.4639   20.4229 H   0  0  0  0  0  0  0  0  0  0  0  0
    5.8578   -9.0359   22.1482 H   0  0  0  0  0  0  0  0  0  0  0  0
    6.2143   -6.1723   21.2351 H   0  0  0  0  0  0  0  0  0  0  0  0
    4.5613   -6.5056   21.6033 H   0  0  0  0  0  0  0  0  0  0  0  0
    5.8076   -6.8414   22.8067 H   0  0  0  0  0  0  0  0  0  0  0  0
    4.6983   -9.7823   21.0358 H   0  0  0  0  0  0  0  0  0  0  0  0
    3.8339   -8.3546   19.9705 H   0  0  0  0  0  0  0  0  0  0  0  0
    2.3306   -9.6482   19.6413 H   0  0  0  0  0  0  0  0  0  0  0  0
    2.7398  -11.1748   19.1693 H   0  0  0  0  0  0  0  0  0  0  0  0
    0.9460  -10.0369   21.7503 H   0  0  0  0  0  0  0  0  0  0  0  0
   -1.7657  -13.4730   22.1924 H   0  0  0  0  0  0  0  0  0  0  0  0
   -1.9612  -11.7795   22.8705 H   0  0  0  0  0  0  0  0  0  0  0  0
   -1.8395  -12.6673   25.4258 H   0  0  0  0  0  0  0  0  0  0  0  0
   -3.1287  -12.4305   24.3082 H   0  0  0  0  0  0  0  0  0  0  0  0
   -1.0468  -16.2011   24.9662 H   0  0  0  0  0  0  0  0  0  0  0  0
   -4.0424  -18.5831   26.9744 H   0  0  0  0  0  0  0  0  0  0  0  0
   -4.2232  -14.4072   27.0163 H   0  0  0  0  0  0  0  0  0  0  0  0
  1  2  1  0
  2  3  2  0
  3  4  1  0
  4  5  2  0
  5  6  1  0
  6  7  2  0
  6  8  1  0
  8  9  1  0
  9 10  1  0
  9 11  1  0
 11 12  1  0
 12 13  1  0
 13 14  1  0
 14 15  2  0
 14 16  1  0
 16 17  1  0
 17 18  1  0
 18 19  2  0
 19 20  1  0
 20 21  2  0
 21 22  1  0
 22 23  2  0
  5 24  1  0
 24  2  1  0
 23 18  1  0
  1 25  1  0
  1 26  1  0
  1 27  1  0
  3 28  1  0
  4 29  1  0
  8 30  1  0
  9 31  1  0
 10 32  1  0
 10 33  1  0
 10 34  1  0
 11 35  1  0
 11 36  1  0
 12 37  1  0
 12 38  1  0
 13 39  1  0
 16 40  1  0
 16 41  1  0
 17 42  1  0
 17 43  1  0
 19 44  1  0
 21 45  1  0
 23 46  1  0
M  END
>  <Energy>  (760) 
677.24825335601736

>  <compound_id>  (760) 
17516

>  <target_id>  (760) 
1

>  <reference_id>  (760) 
54

>  <inspiration_ids>  (760) 
[66, 54]

>  <energy_score>  (760) 
669.4366779377657

>  <distance_score>  (760) 
10.625577067543128

>  <path>  (760) 
/opt/xchem-fragalysis-2/maxwin/BulkDock/SCRATCH/511014/C17516-P54/C17516-P54.minimised.mol

>  <scratch_subdir>  (760) 
/opt/xchem-fragalysis-2/maxwin/BulkDock/SCRATCH/511014/C17516-P54

>  <fragmenstein_runtime>  (760) 
43.05042266845703

>  <fragmenstein_outcome>  (760) 
too moved

>  <fragmenstein_mode>  (760) 
expansion

>  <fragmenstein_error>  (760) 


$$$$
C17517-P66
     RDKit          3D

 40 41  0  0  0  0  0  0  0  0999 V2000
    6.7761  -10.7748   12.7371 C   0  0  0  0  0  0  0  0  0  0  0  0
    5.7225   -9.7763   13.1826 C   0  0  0  0  0  0  0  0  0  0  0  0
    5.7479   -8.2048   12.4409 S   0  0  0  0  0  0  0  0  0  0  0  0
    4.6670   -8.8971   11.3272 C   0  0  0  0  0  0  0  0  0  0  0  0
    4.1536  -10.0383   11.9540 C   0  0  0  0  0  0  0  0  0  0  0  0
    4.3643  -10.0734   13.5618 C   0  0  0  0  0  0  0  0  0  0  0  0
    4.1730  -11.3132   14.7034 C   0  0  0  0  0  0  0  0  0  0  0  0
    5.0860  -12.1048   14.5667 O   0  0  0  0  0  0  0  0  0  0  0  0
    3.0860  -11.8854   16.1069 N   0  0  0  0  0  0  0  0  0  0  0  0
    1.8626  -12.8366   15.4257 C   0  0  0  0  0  0  0  0  0  0  0  0
    1.4056  -13.1701   16.3254 C   0  0  0  0  0  0  0  0  0  0  0  0
   -0.3964  -13.3197   17.4532 C   0  0  0  0  0  0  0  0  0  0  0  0
   -1.8615  -14.7687   17.6401 N   0  0  0  0  0  0  0  0  0  0  0  0
   -1.2531  -13.6863   17.3842 C   0  0  0  0  0  0  0  0  0  0  0  0
   -1.9140  -15.8861   18.9934 C   0  0  0  0  0  0  0  0  0  0  0  0
   -1.3027  -15.9478   19.9668 O   0  0  0  0  0  0  0  0  0  0  0  0
   -2.9468  -17.1033   18.9224 C   0  0  0  0  0  0  0  0  0  0  0  0
   -4.1134  -17.3196   18.2345 C   0  0  0  0  0  0  0  0  0  0  0  0
   -5.0274  -18.2893   18.5256 N   0  0  0  0  0  0  0  0  0  0  0  0
   -4.6551  -19.2760   19.2998 C   0  0  0  0  0  0  0  0  0  0  0  0
   -3.4140  -19.3399   19.7242 N   0  0  0  0  0  0  0  0  0  0  0  0
   -2.6431  -18.2163   19.6202 C   0  0  0  0  0  0  0  0  0  0  0  0
    7.1688  -10.5107   11.7482 H   0  0  0  0  0  0  0  0  0  0  0  0
    6.3452  -11.7711   12.5920 H   0  0  0  0  0  0  0  0  0  0  0  0
    7.6018  -10.8860   13.4233 H   0  0  0  0  0  0  0  0  0  0  0  0
    4.4551   -8.4978   10.3458 H   0  0  0  0  0  0  0  0  0  0  0  0
    3.4454  -10.6653   11.4190 H   0  0  0  0  0  0  0  0  0  0  0  0
    1.2919  -12.1186   14.6581 H   0  0  0  0  0  0  0  0  0  0  0  0
    1.5372  -12.9273   14.2337 H   0  0  0  0  0  0  0  0  0  0  0  0
    2.5550  -13.3402   14.8612 H   0  0  0  0  0  0  0  0  0  0  0  0
    1.4692  -14.3775   16.3365 H   0  0  0  0  0  0  0  0  0  0  0  0
    1.8479  -13.8071   17.3812 H   0  0  0  0  0  0  0  0  0  0  0  0
   -0.7030  -12.2058   18.0267 H   0  0  0  0  0  0  0  0  0  0  0  0
    0.3801  -13.6623   18.1683 H   0  0  0  0  0  0  0  0  0  0  0  0
   -2.1676  -13.0225   17.0135 H   0  0  0  0  0  0  0  0  0  0  0  0
   -1.5175  -14.1136   16.3015 H   0  0  0  0  0  0  0  0  0  0  0  0
   -1.9568  -13.2930   18.2991 H   0  0  0  0  0  0  0  0  0  0  0  0
   -4.4370  -16.6520   17.4411 H   0  0  0  0  0  0  0  0  0  0  0  0
   -5.3493  -20.0655   19.5504 H   0  0  0  0  0  0  0  0  0  0  0  0
   -1.7515  -18.2050   20.2302 H   0  0  0  0  0  0  0  0  0  0  0  0
  1  2  1  0
  2  3  1  0
  3  4  1  0
  4  5  2  0
  5  6  1  0
  6  7  1  0
  7  8  2  0
  7  9  1  0
  9 10  1  0
  9 11  1  0
 11 12  1  0
 12 13  1  0
 13 14  1  0
 13 15  1  0
 15 16  2  0
 15 17  1  0
 17 18  2  0
 18 19  1  0
 19 20  2  0
 20 21  1  0
 21 22  2  0
  6  2  2  0
 22 17  1  0
  1 23  1  0
  1 24  1  0
  1 25  1  0
  4 26  1  0
  5 27  1  0
 10 28  1  0
 10 29  1  0
 10 30  1  0
 11 31  1  0
 11 32  1  0
 12 33  1  0
 12 34  1  0
 14 35  1  0
 14 36  1  0
 14 37  1  0
 18 38  1  0
 20 39  1  0
 22 40  1  0
M  END
>  <Energy>  (761) 
1820.0989942464903

>  <compound_id>  (761) 
17517

>  <target_id>  (761) 
1

>  <reference_id>  (761) 
66

>  <inspiration_ids>  (761) 
[66, 54]

>  <energy_score>  (761) 
1764.9324727171675

>  <distance_score>  (761) 
13.027558871195032

>  <path>  (761) 
/opt/xchem-fragalysis-2/maxwin/BulkDock/SCRATCH/511014/C17517-P66/C17517-P66.minimised.mol

>  <scratch_subdir>  (761) 
/opt/xchem-fragalysis-2/maxwin/BulkDock/SCRATCH/511014/C17517-P66

>  <fragmenstein_runtime>  (761) 
30.791687965393066

>  <fragmenstein_outcome>  (761) 
too moved

>  <fragmenstein_mode>  (761) 
expansion

>  <fragmenstein_error>  (761) 


$$$$
C17517-P54
     RDKit          3D

 40 41  0  0  0  0  0  0  0  0999 V2000
    8.2419  -12.8001   17.3477 C   0  0  0  0  0  0  0  0  0  0  0  0
    6.9414  -11.4491   17.7127 C   0  0  0  0  0  0  0  0  0  0  0  0
    8.1775  -10.2586   16.2462 S   0  0  0  0  0  0  0  0  0  0  0  0
    6.6614   -9.5428   15.8574 C   0  0  0  0  0  0  0  0  0  0  0  0
    5.4347  -10.1439   16.4794 C   0  0  0  0  0  0  0  0  0  0  0  0
    5.1881  -11.5767   17.5004 C   0  0  0  0  0  0  0  0  0  0  0  0
    3.7807  -12.2871   16.4847 C   0  0  0  0  0  0  0  0  0  0  0  0
    3.3952  -11.4408   15.7702 O   0  0  0  0  0  0  0  0  0  0  0  0
    2.9312  -13.7841   16.0373 N   0  0  0  0  0  0  0  0  0  0  0  0
    1.8665  -13.8732   16.7365 C   0  0  0  0  0  0  0  0  0  0  0  0
    1.1856  -14.6665   16.5929 C   0  0  0  0  0  0  0  0  0  0  0  0
   -0.0582  -15.5579   18.1164 C   0  0  0  0  0  0  0  0  0  0  0  0
   -1.8282  -16.4722   18.7182 N   0  0  0  0  0  0  0  0  0  0  0  0
   -0.9087  -15.6689   18.5365 C   0  0  0  0  0  0  0  0  0  0  0  0
   -2.5904  -17.5465   17.8428 C   0  0  0  0  0  0  0  0  0  0  0  0
   -2.4095  -17.9253   16.7901 O   0  0  0  0  0  0  0  0  0  0  0  0
   -3.9234  -18.1778   18.4076 C   0  0  0  0  0  0  0  0  0  0  0  0
   -5.0850  -17.7836   17.7677 C   0  0  0  0  0  0  0  0  0  0  0  0
   -6.3655  -18.2449   17.9667 N   0  0  0  0  0  0  0  0  0  0  0  0
   -6.4929  -19.3269   18.7357 C   0  0  0  0  0  0  0  0  0  0  0  0
   -5.4651  -19.9729   19.2576 N   0  0  0  0  0  0  0  0  0  0  0  0
   -4.2401  -19.3736   19.0716 C   0  0  0  0  0  0  0  0  0  0  0  0
    9.0813  -12.9074   18.0532 H   0  0  0  0  0  0  0  0  0  0  0  0
    7.7591  -13.7483   17.1180 H   0  0  0  0  0  0  0  0  0  0  0  0
    8.8754  -12.5918   16.4805 H   0  0  0  0  0  0  0  0  0  0  0  0
    6.8778   -8.9130   15.0352 H   0  0  0  0  0  0  0  0  0  0  0  0
    4.6388   -9.9291   15.8156 H   0  0  0  0  0  0  0  0  0  0  0  0
    1.7808  -13.3069   17.7345 H   0  0  0  0  0  0  0  0  0  0  0  0
    1.6410  -13.1323   15.8814 H   0  0  0  0  0  0  0  0  0  0  0  0
    2.7833  -14.7822   16.8303 H   0  0  0  0  0  0  0  0  0  0  0  0
    1.5096  -15.6388   16.1006 H   0  0  0  0  0  0  0  0  0  0  0  0
    0.3892  -14.1040   15.7296 H   0  0  0  0  0  0  0  0  0  0  0  0
    0.5424  -14.8864   18.8450 H   0  0  0  0  0  0  0  0  0  0  0  0
    0.2609  -16.6716   17.6370 H   0  0  0  0  0  0  0  0  0  0  0  0
   -1.8702  -15.0935   18.1463 H   0  0  0  0  0  0  0  0  0  0  0  0
   -0.9773  -15.0621   19.5743 H   0  0  0  0  0  0  0  0  0  0  0  0
   -0.5758  -16.4245   19.4970 H   0  0  0  0  0  0  0  0  0  0  0  0
   -5.0266  -17.0444   16.9739 H   0  0  0  0  0  0  0  0  0  0  0  0
   -7.4866  -19.7174   18.9132 H   0  0  0  0  0  0  0  0  0  0  0  0
   -3.5012  -19.9101   19.6644 H   0  0  0  0  0  0  0  0  0  0  0  0
  1  2  1  0
  2  3  1  0
  3  4  1  0
  4  5  2  0
  5  6  1  0
  6  7  1  0
  7  8  2  0
  7  9  1  0
  9 10  1  0
  9 11  1  0
 11 12  1  0
 12 13  1  0
 13 14  1  0
 13 15  1  0
 15 16  2  0
 15 17  1  0
 17 18  2  0
 18 19  1  0
 19 20  2  0
 20 21  1  0
 21 22  2  0
  6  2  2  0
 22 17  1  0
  1 23  1  0
  1 24  1  0
  1 25  1  0
  4 26  1  0
  5 27  1  0
 10 28  1  0
 10 29  1  0
 10 30  1  0
 11 31  1  0
 11 32  1  0
 12 33  1  0
 12 34  1  0
 14 35  1  0
 14 36  1  0
 14 37  1  0
 18 38  1  0
 20 39  1  0
 22 40  1  0
M  END
>  <Energy>  (762) 
2091.1730205646004

>  <compound_id>  (762) 
17517

>  <target_id>  (762) 
1

>  <reference_id>  (762) 
54

>  <inspiration_ids>  (762) 
[66, 54]

>  <energy_score>  (762) 
2036.0064990352498

>  <distance_score>  (762) 
12.738099968815115

>  <path>  (762) 
/opt/xchem-fragalysis-2/maxwin/BulkDock/SCRATCH/511014/C17517-P54/C17517-P54.minimised.mol

>  <scratch_subdir>  (762) 
/opt/xchem-fragalysis-2/maxwin/BulkDock/SCRATCH/511014/C17517-P54

>  <fragmenstein_runtime>  (762) 
18.87643814086914

>  <fragmenstein_outcome>  (762) 
too moved

>  <fragmenstein_mode>  (762) 
expansion

>  <fragmenstein_error>  (762) 


$$$$
C17519-P66
     RDKit          3D

 25 26  0  0  0  0  0  0  0  0999 V2000
   -0.2532   -7.2701   20.5002 C   0  0  0  0  0  0  0  0  0  0  0  0
   -1.3784   -8.2720   20.4239 C   0  0  0  0  0  0  0  0  0  0  0  0
   -2.0020   -9.0100   21.4280 C   0  0  0  0  0  0  0  0  0  0  0  0
   -2.9769   -9.9873   20.9507 C   0  0  0  0  0  0  0  0  0  0  0  0
   -3.7496  -10.8184   21.7922 N   0  0  0  0  0  0  0  0  0  0  0  0
   -4.5167  -12.0442   21.3469 C   0  0  0  0  0  0  0  0  0  0  0  0
   -5.0500  -12.9811   22.4400 C   0  0  0  0  0  0  0  0  0  0  0  0
   -6.0271  -12.6375   23.3585 C   0  0  0  0  0  0  0  0  0  0  0  0
   -6.5902  -13.4872   24.2613 N   0  0  0  0  0  0  0  0  0  0  0  0
   -6.1534  -14.7549   24.2346 C   0  0  0  0  0  0  0  0  0  0  0  0
   -5.2366  -15.2309   23.3849 N   0  0  0  0  0  0  0  0  0  0  0  0
   -4.7120  -14.3302   22.5107 C   0  0  0  0  0  0  0  0  0  0  0  0
   -3.0201   -9.9294   19.5731 C   0  0  0  0  0  0  0  0  0  0  0  0
   -2.0953   -8.6292   18.9075 S   0  0  0  0  0  0  0  0  0  0  0  0
    0.3388   -7.4506   21.4006 H   0  0  0  0  0  0  0  0  0  0  0  0
   -0.6616   -6.2560   20.5556 H   0  0  0  0  0  0  0  0  0  0  0  0
    0.3980   -7.3366   19.6241 H   0  0  0  0  0  0  0  0  0  0  0  0
   -1.7359   -8.8897   22.4694 H   0  0  0  0  0  0  0  0  0  0  0  0
   -4.2645  -10.3101   22.5110 H   0  0  0  0  0  0  0  0  0  0  0  0
   -3.8575  -12.6235   20.6886 H   0  0  0  0  0  0  0  0  0  0  0  0
   -5.3686  -11.7148   20.7398 H   0  0  0  0  0  0  0  0  0  0  0  0
   -6.4263  -11.6265   23.3950 H   0  0  0  0  0  0  0  0  0  0  0  0
   -6.5752  -15.4461   24.9547 H   0  0  0  0  0  0  0  0  0  0  0  0
   -3.9809  -14.7588   21.8269 H   0  0  0  0  0  0  0  0  0  0  0  0
   -3.6199  -10.5243   18.9019 H   0  0  0  0  0  0  0  0  0  0  0  0
  1  2  1  0
  2  3  2  0
  3  4  1  0
  4  5  1  0
  5  6  1  0
  6  7  1  0
  7  8  2  0
  8  9  1  0
  9 10  2  0
 10 11  1  0
 11 12  2  0
  4 13  2  0
 13 14  1  0
 14  2  1  0
 12  7  1  0
  1 15  1  0
  1 16  1  0
  1 17  1  0
  3 18  1  0
  5 19  1  0
  6 20  1  0
  6 21  1  0
  8 22  1  0
 10 23  1  0
 12 24  1  0
 13 25  1  0
M  END
>  <Energy>  (763) 
-2.6453807233025866

>  <compound_id>  (763) 
17519

>  <target_id>  (763) 
1

>  <reference_id>  (763) 
66

>  <inspiration_ids>  (763) 
[66, 54]

>  <energy_score>  (763) 
-13.848507475020142

>  <distance_score>  (763) 
15.191628324527422

>  <path>  (763) 
/opt/xchem-fragalysis-2/maxwin/BulkDock/SCRATCH/511014/C17519-P66/C17519-P66.minimised.mol

>  <scratch_subdir>  (763) 
/opt/xchem-fragalysis-2/maxwin/BulkDock/SCRATCH/511014/C17519-P66

>  <fragmenstein_runtime>  (763) 
9.870617151260376

>  <fragmenstein_outcome>  (763) 
too moved

>  <fragmenstein_mode>  (763) 
expansion

>  <fragmenstein_error>  (763) 


$$$$
C17519-P54
     RDKit          3D

 25 26  0  0  0  0  0  0  0  0999 V2000
    8.7499  -12.9075   16.7286 C   0  0  0  0  0  0  0  0  0  0  0  0
    7.3056  -13.7037   17.1314 C   0  0  0  0  0  0  0  0  0  0  0  0
    7.4223  -15.2454   17.2342 C   0  0  0  0  0  0  0  0  0  0  0  0
    6.2221  -15.9946   17.6712 C   0  0  0  0  0  0  0  0  0  0  0  0
    6.3713  -17.3354   18.2892 N   0  0  0  0  0  0  0  0  0  0  0  0
    5.6157  -17.8051   19.6677 C   0  0  0  0  0  0  0  0  0  0  0  0
    4.7382  -19.0731   19.9999 C   0  0  0  0  0  0  0  0  0  0  0  0
    4.9101  -20.3596   19.5533 C   0  0  0  0  0  0  0  0  0  0  0  0
    4.1358  -21.4397   19.9030 N   0  0  0  0  0  0  0  0  0  0  0  0
    3.1306  -21.2181   20.7644 C   0  0  0  0  0  0  0  0  0  0  0  0
    2.8564  -20.0477   21.3210 N   0  0  0  0  0  0  0  0  0  0  0  0
    3.6663  -19.0242   20.9115 C   0  0  0  0  0  0  0  0  0  0  0  0
    5.0783  -15.2306   17.3432 C   0  0  0  0  0  0  0  0  0  0  0  0
    5.0024  -12.9958   16.8735 S   0  0  0  0  0  0  0  0  0  0  0  0
    9.6028  -13.3410   17.2650 H   0  0  0  0  0  0  0  0  0  0  0  0
    9.0308  -13.2012   15.7080 H   0  0  0  0  0  0  0  0  0  0  0  0
    8.7253  -11.8370   16.9599 H   0  0  0  0  0  0  0  0  0  0  0  0
    8.4109  -15.6939   17.2162 H   0  0  0  0  0  0  0  0  0  0  0  0
    7.3527  -17.5124   18.4958 H   0  0  0  0  0  0  0  0  0  0  0  0
    6.4173  -17.8177   20.4154 H   0  0  0  0  0  0  0  0  0  0  0  0
    4.9935  -16.9656   19.8421 H   0  0  0  0  0  0  0  0  0  0  0  0
    5.7113  -20.5966   18.8597 H   0  0  0  0  0  0  0  0  0  0  0  0
    2.5069  -22.0616   21.0304 H   0  0  0  0  0  0  0  0  0  0  0  0
    3.3945  -18.0961   21.3901 H   0  0  0  0  0  0  0  0  0  0  0  0
    4.0946  -15.3346   17.0282 H   0  0  0  0  0  0  0  0  0  0  0  0
  1  2  1  0
  2  3  2  0
  3  4  1  0
  4  5  1  0
  5  6  1  0
  6  7  1  0
  7  8  2  0
  8  9  1  0
  9 10  2  0
 10 11  1  0
 11 12  2  0
  4 13  2  0
 13 14  1  0
 14  2  1  0
 12  7  1  0
  1 15  1  0
  1 16  1  0
  1 17  1  0
  3 18  1  0
  5 19  1  0
  6 20  1  0
  6 21  1  0
  8 22  1  0
 10 23  1  0
 12 24  1  0
 13 25  1  0
M  END
>  <Energy>  (764) 
222.10627373452792

>  <compound_id>  (764) 
17519

>  <target_id>  (764) 
1

>  <reference_id>  (764) 
54

>  <inspiration_ids>  (764) 
[66, 54]

>  <energy_score>  (764) 
210.90314698280463

>  <distance_score>  (764) 
16.032035546336243

>  <path>  (764) 
/opt/xchem-fragalysis-2/maxwin/BulkDock/SCRATCH/511014/C17519-P54/C17519-P54.minimised.mol

>  <scratch_subdir>  (764) 
/opt/xchem-fragalysis-2/maxwin/BulkDock/SCRATCH/511014/C17519-P54

>  <fragmenstein_runtime>  (764) 
5.400656461715698

>  <fragmenstein_outcome>  (764) 
too moved

>  <fragmenstein_mode>  (764) 
expansion

>  <fragmenstein_error>  (764) 


$$$$
C17520-P66
     RDKit          3D

 46 47  0  0  0  0  0  0  0  0999 V2000
   11.9743   -4.3846   16.9263 C   0  0  0  0  0  0  0  0  0  0  0  0
   10.6011   -5.0330   17.2048 C   0  0  0  0  0  0  0  0  0  0  0  0
   10.4697   -5.7358   18.4177 C   0  0  0  0  0  0  0  0  0  0  0  0
    9.2850   -6.3996   19.0425 C   0  0  0  0  0  0  0  0  0  0  0  0
    7.3765   -6.7241   18.9406 C   0  0  0  0  0  0  0  0  0  0  0  0
    5.5848   -6.8754   18.1959 C   0  0  0  0  0  0  0  0  0  0  0  0
    5.2280   -5.8005   17.7535 O   0  0  0  0  0  0  0  0  0  0  0  0
    4.4493   -8.4213   18.3012 N   0  0  0  0  0  0  0  0  0  0  0  0
    2.4102   -8.6551   17.8976 C   0  0  0  0  0  0  0  0  0  0  0  0
    0.2708   -8.6964   18.3213 C   0  0  0  0  0  0  0  0  0  0  0  0
    0.5014   -8.2893   19.8972 C   0  0  0  0  0  0  0  0  0  0  0  0
   -1.1753  -10.1648   18.4513 N   0  0  0  0  0  0  0  0  0  0  0  0
   -1.6180   -9.3515   19.5805 C   0  0  0  0  0  0  0  0  0  0  0  0
   -2.2239  -10.4696   17.6859 C   0  0  0  0  0  0  0  0  0  0  0  0
   -2.6920   -9.9114   16.7448 O   0  0  0  0  0  0  0  0  0  0  0  0
   -2.6577  -12.1409   18.4594 C   0  0  0  0  0  0  0  0  0  0  0  0
   -1.9431  -13.9867   18.1573 C   0  0  0  0  0  0  0  0  0  0  0  0
   -2.0225  -15.7251   19.1183 C   0  0  0  0  0  0  0  0  0  0  0  0
   -1.1756  -16.4708   19.9654 C   0  0  0  0  0  0  0  0  0  0  0  0
   -1.1051  -17.8566   20.1937 N   0  0  0  0  0  0  0  0  0  0  0  0
   -1.9825  -18.6477   19.6125 C   0  0  0  0  0  0  0  0  0  0  0  0
   -3.0550  -18.1815   19.0409 N   0  0  0  0  0  0  0  0  0  0  0  0
   -3.0378  -16.8303   18.8422 C   0  0  0  0  0  0  0  0  0  0  0  0
    9.4903   -5.6680   19.1836 S   0  0  0  0  0  0  0  0  0  0  0  0
   12.4951   -3.9851   17.7998 H   0  0  0  0  0  0  0  0  0  0  0  0
   12.6403   -5.1239   16.4772 H   0  0  0  0  0  0  0  0  0  0  0  0
   11.8329   -3.5737   16.2045 H   0  0  0  0  0  0  0  0  0  0  0  0
   11.6335   -5.6037   19.1733 H   0  0  0  0  0  0  0  0  0  0  0  0
    9.4275   -7.6736   19.7483 H   0  0  0  0  0  0  0  0  0  0  0  0
    4.9894   -9.2183   18.6237 H   0  0  0  0  0  0  0  0  0  0  0  0
    2.3597   -8.2827   16.8887 H   0  0  0  0  0  0  0  0  0  0  0  0
    2.3690   -7.7369   18.4201 H   0  0  0  0  0  0  0  0  0  0  0  0
   -0.1778   -8.0315   17.6174 H   0  0  0  0  0  0  0  0  0  0  0  0
    1.0219   -7.3564   19.9929 H   0  0  0  0  0  0  0  0  0  0  0  0
    1.0333   -9.0837   20.4276 H   0  0  0  0  0  0  0  0  0  0  0  0
   -0.2774   -8.1360   20.6282 H   0  0  0  0  0  0  0  0  0  0  0  0
   -1.9725   -8.4122   19.1899 H   0  0  0  0  0  0  0  0  0  0  0  0
   -1.2267   -9.6018   20.5722 H   0  0  0  0  0  0  0  0  0  0  0  0
   -2.6241   -9.7476   19.8188 H   0  0  0  0  0  0  0  0  0  0  0  0
   -3.7361  -12.0362   18.5476 H   0  0  0  0  0  0  0  0  0  0  0  0
   -2.3020  -12.0111   19.4955 H   0  0  0  0  0  0  0  0  0  0  0  0
   -0.9419  -13.7200   17.8330 H   0  0  0  0  0  0  0  0  0  0  0  0
   -2.3465  -14.2493   17.1565 H   0  0  0  0  0  0  0  0  0  0  0  0
   -0.2080  -16.2146   20.3660 H   0  0  0  0  0  0  0  0  0  0  0  0
   -1.8391  -19.7186   19.6712 H   0  0  0  0  0  0  0  0  0  0  0  0
   -3.8923  -16.7168   18.1487 H   0  0  0  0  0  0  0  0  0  0  0  0
  1  2  1  0
  2  3  2  0
  3  4  1  0
  4  5  2  0
  5  6  1  0
  6  7  2  0
  6  8  1  0
  8  9  1  0
  9 10  1  0
 10 11  1  0
 10 12  1  0
 12 13  1  0
 12 14  1  0
 14 15  2  0
 14 16  1  0
 16 17  1  0
 17 18  1  0
 18 19  2  0
 19 20  1  0
 20 21  2  0
 21 22  1  0
 22 23  2  0
  5 24  1  0
 24  2  1  0
 23 18  1  0
  1 25  1  0
  1 26  1  0
  1 27  1  0
  3 28  1  0
  4 29  1  0
  8 30  1  0
  9 31  1  0
  9 32  1  0
 10 33  1  0
 11 34  1  0
 11 35  1  0
 11 36  1  0
 13 37  1  0
 13 38  1  0
 13 39  1  0
 16 40  1  0
 16 41  1  0
 17 42  1  0
 17 43  1  0
 19 44  1  0
 21 45  1  0
 23 46  1  0
M  END
>  <Energy>  (765) 
1693.6566731568305

>  <compound_id>  (765) 
17520

>  <target_id>  (765) 
1

>  <reference_id>  (765) 
66

>  <inspiration_ids>  (765) 
[66, 54]

>  <energy_score>  (765) 
1659.6096108436705

>  <distance_score>  (765) 
12.066922547731924

>  <path>  (765) 
/opt/xchem-fragalysis-2/maxwin/BulkDock/SCRATCH/511014/C17520-P66/C17520-P66.minimised.mol

>  <scratch_subdir>  (765) 
/opt/xchem-fragalysis-2/maxwin/BulkDock/SCRATCH/511014/C17520-P66

>  <fragmenstein_runtime>  (765) 
32.98504829406738

>  <fragmenstein_outcome>  (765) 
too moved

>  <fragmenstein_mode>  (765) 
expansion

>  <fragmenstein_error>  (765) 


$$$$
C17520-P54
     RDKit          3D

 46 47  0  0  0  0  0  0  0  0999 V2000
    9.8921   -7.9650   20.8571 C   0  0  0  0  0  0  0  0  0  0  0  0
    8.6675   -8.0344   21.7042 C   0  0  0  0  0  0  0  0  0  0  0  0
    8.0481   -7.0100   22.3848 C   0  0  0  0  0  0  0  0  0  0  0  0
    6.9436   -7.4806   23.1622 C   0  0  0  0  0  0  0  0  0  0  0  0
    6.6984   -8.8418   23.0206 C   0  0  0  0  0  0  0  0  0  0  0  0
    5.5790   -9.6277   23.6342 C   0  0  0  0  0  0  0  0  0  0  0  0
    5.1444   -9.2776   24.6947 O   0  0  0  0  0  0  0  0  0  0  0  0
    5.1408  -10.6793   22.7317 N   0  0  0  0  0  0  0  0  0  0  0  0
    3.7033  -11.7872   22.7966 C   0  0  0  0  0  0  0  0  0  0  0  0
    2.3999  -11.7543   21.3058 C   0  0  0  0  0  0  0  0  0  0  0  0
    2.6870  -13.0986   20.9227 C   0  0  0  0  0  0  0  0  0  0  0  0
    0.9589  -11.7219   21.9481 N   0  0  0  0  0  0  0  0  0  0  0  0
    0.9973  -10.4308   21.4311 C   0  0  0  0  0  0  0  0  0  0  0  0
   -0.5788  -12.5492   21.4782 C   0  0  0  0  0  0  0  0  0  0  0  0
   -0.8332  -13.2329   20.4975 O   0  0  0  0  0  0  0  0  0  0  0  0
   -1.7824  -12.3111   22.9103 C   0  0  0  0  0  0  0  0  0  0  0  0
   -2.5425  -13.0498   24.1087 C   0  0  0  0  0  0  0  0  0  0  0  0
   -2.3303  -13.9560   25.7520 C   0  0  0  0  0  0  0  0  0  0  0  0
   -2.2791  -15.3681   25.7914 C   0  0  0  0  0  0  0  0  0  0  0  0
   -2.2452  -16.1803   26.8817 N   0  0  0  0  0  0  0  0  0  0  0  0
   -2.3341  -15.5486   28.0429 C   0  0  0  0  0  0  0  0  0  0  0  0
   -2.3036  -14.2212   28.1875 N   0  0  0  0  0  0  0  0  0  0  0  0
   -2.2584  -13.4674   27.0463 C   0  0  0  0  0  0  0  0  0  0  0  0
    7.8651   -9.5275   21.9620 S   0  0  0  0  0  0  0  0  0  0  0  0
    9.7736   -7.2007   20.0820 H   0  0  0  0  0  0  0  0  0  0  0  0
   10.7590   -7.6986   21.4706 H   0  0  0  0  0  0  0  0  0  0  0  0
   10.1099   -8.9156   20.3600 H   0  0  0  0  0  0  0  0  0  0  0  0
    8.3878   -5.9807   22.3699 H   0  0  0  0  0  0  0  0  0  0  0  0
    6.3324   -6.8483   23.7959 H   0  0  0  0  0  0  0  0  0  0  0  0
    5.6948  -10.6365   21.8827 H   0  0  0  0  0  0  0  0  0  0  0  0
    4.1921  -12.7531   22.7303 H   0  0  0  0  0  0  0  0  0  0  0  0
    3.2986  -11.8084   23.8160 H   0  0  0  0  0  0  0  0  0  0  0  0
    2.6639  -11.1755   20.4249 H   0  0  0  0  0  0  0  0  0  0  0  0
    1.8812  -13.5730   21.3467 H   0  0  0  0  0  0  0  0  0  0  0  0
    2.5320  -13.1038   19.8650 H   0  0  0  0  0  0  0  0  0  0  0  0
    3.5963  -13.5969   21.2348 H   0  0  0  0  0  0  0  0  0  0  0  0
    0.2690  -10.3772   20.6025 H   0  0  0  0  0  0  0  0  0  0  0  0
    1.6619  -10.0506   20.7028 H   0  0  0  0  0  0  0  0  0  0  0  0
    0.8103   -9.8802   22.3248 H   0  0  0  0  0  0  0  0  0  0  0  0
   -0.9386  -11.8531   23.2234 H   0  0  0  0  0  0  0  0  0  0  0  0
   -2.4447  -11.4253   22.9218 H   0  0  0  0  0  0  0  0  0  0  0  0
   -3.1508  -12.2469   24.3940 H   0  0  0  0  0  0  0  0  0  0  0  0
   -3.0168  -13.8117   23.4352 H   0  0  0  0  0  0  0  0  0  0  0  0
   -2.2234  -15.9282   24.8680 H   0  0  0  0  0  0  0  0  0  0  0  0
   -2.4006  -16.1490   28.9411 H   0  0  0  0  0  0  0  0  0  0  0  0
   -2.2274  -12.4208   27.2928 H   0  0  0  0  0  0  0  0  0  0  0  0
  1  2  1  0
  2  3  2  0
  3  4  1  0
  4  5  2  0
  5  6  1  0
  6  7  2  0
  6  8  1  0
  8  9  1  0
  9 10  1  0
 10 11  1  0
 10 12  1  0
 12 13  1  0
 12 14  1  0
 14 15  2  0
 14 16  1  0
 16 17  1  0
 17 18  1  0
 18 19  2  0
 19 20  1  0
 20 21  2  0
 21 22  1  0
 22 23  2  0
  5 24  1  0
 24  2  1  0
 23 18  1  0
  1 25  1  0
  1 26  1  0
  1 27  1  0
  3 28  1  0
  4 29  1  0
  8 30  1  0
  9 31  1  0
  9 32  1  0
 10 33  1  0
 11 34  1  0
 11 35  1  0
 11 36  1  0
 13 37  1  0
 13 38  1  0
 13 39  1  0
 16 40  1  0
 16 41  1  0
 17 42  1  0
 17 43  1  0
 19 44  1  0
 21 45  1  0
 23 46  1  0
M  END
>  <Energy>  (766) 
396.41222937138247

>  <compound_id>  (766) 
17520

>  <target_id>  (766) 
1

>  <reference_id>  (766) 
54

>  <inspiration_ids>  (766) 
[66, 54]

>  <energy_score>  (766) 
362.3651670581785

>  <distance_score>  (766) 
12.47628291843057

>  <path>  (766) 
/opt/xchem-fragalysis-2/maxwin/BulkDock/SCRATCH/511014/C17520-P54/C17520-P54.minimised.mol

>  <scratch_subdir>  (766) 
/opt/xchem-fragalysis-2/maxwin/BulkDock/SCRATCH/511014/C17520-P54

>  <fragmenstein_runtime>  (766) 
31.091678142547607

>  <fragmenstein_outcome>  (766) 
too moved

>  <fragmenstein_mode>  (766) 
expansion

>  <fragmenstein_error>  (766) 


$$$$
C17522-P66
     RDKit          3D

 43 44  0  0  0  0  0  0  0  0999 V2000
    0.8331   -1.4774   19.5449 C   0  0  0  0  0  0  0  0  0  0  0  0
    0.4309   -2.3150   20.7075 C   0  0  0  0  0  0  0  0  0  0  0  0
   -0.8340   -2.5509   21.2058 C   0  0  0  0  0  0  0  0  0  0  0  0
   -0.8887   -3.4718   22.3368 C   0  0  0  0  0  0  0  0  0  0  0  0
   -2.1819   -3.8882   23.0043 C   0  0  0  0  0  0  0  0  0  0  0  0
   -3.0733   -3.0990   22.8947 O   0  0  0  0  0  0  0  0  0  0  0  0
   -2.1457   -5.1876   23.6457 N   0  0  0  0  0  0  0  0  0  0  0  0
   -3.1560   -5.8950   24.4400 C   0  0  0  0  0  0  0  0  0  0  0  0
   -3.2348   -7.4412   24.2933 C   0  0  0  0  0  0  0  0  0  0  0  0
   -4.7724   -8.1102   24.9933 C   0  0  0  0  0  0  0  0  0  0  0  0
   -4.5721   -7.6912   26.6698 C   0  0  0  0  0  0  0  0  0  0  0  0
   -5.3480  -10.0200   25.1593 N   0  0  0  0  0  0  0  0  0  0  0  0
   -4.9389   -8.8649   24.7780 C   0  0  0  0  0  0  0  0  0  0  0  0
   -4.6441  -11.1352   25.7849 C   0  0  0  0  0  0  0  0  0  0  0  0
   -3.5391  -11.2175   26.2189 O   0  0  0  0  0  0  0  0  0  0  0  0
   -5.5237  -12.3636   25.9634 C   0  0  0  0  0  0  0  0  0  0  0  0
   -6.8312  -12.4950   25.5367 C   0  0  0  0  0  0  0  0  0  0  0  0
   -7.6229  -13.5871   25.7627 N   0  0  0  0  0  0  0  0  0  0  0  0
   -7.0584  -14.5919   26.4541 C   0  0  0  0  0  0  0  0  0  0  0  0
   -5.8026  -14.6023   26.9166 N   0  0  0  0  0  0  0  0  0  0  0  0
   -5.0682  -13.4853   26.6481 C   0  0  0  0  0  0  0  0  0  0  0  0
    0.4107   -3.8294   22.6600 C   0  0  0  0  0  0  0  0  0  0  0  0
    1.5998   -3.1173   21.6345 S   0  0  0  0  0  0  0  0  0  0  0  0
    1.4887   -0.6598   19.8620 H   0  0  0  0  0  0  0  0  0  0  0  0
   -0.0433   -1.0351   19.0596 H   0  0  0  0  0  0  0  0  0  0  0  0
    1.3606   -2.0790   18.7971 H   0  0  0  0  0  0  0  0  0  0  0  0
   -1.7276   -2.1131   20.7727 H   0  0  0  0  0  0  0  0  0  0  0  0
   -1.1996   -5.5432   23.6176 H   0  0  0  0  0  0  0  0  0  0  0  0
   -2.9436   -5.6336   25.4809 H   0  0  0  0  0  0  0  0  0  0  0  0
   -4.1237   -5.4517   24.1831 H   0  0  0  0  0  0  0  0  0  0  0  0
   -2.3966   -7.9035   24.8240 H   0  0  0  0  0  0  0  0  0  0  0  0
   -3.1916   -7.7139   23.2311 H   0  0  0  0  0  0  0  0  0  0  0  0
   -5.6428   -7.2471   24.7377 H   0  0  0  0  0  0  0  0  0  0  0  0
   -4.4647   -6.6090   26.7649 H   0  0  0  0  0  0  0  0  0  0  0  0
   -3.6858   -8.2016   27.0600 H   0  0  0  0  0  0  0  0  0  0  0  0
   -5.4615   -8.0167   27.2199 H   0  0  0  0  0  0  0  0  0  0  0  0
   -4.8971   -8.9975   23.4735 H   0  0  0  0  0  0  0  0  0  0  0  0
   -6.1496   -8.9144   24.3157 H   0  0  0  0  0  0  0  0  0  0  0  0
   -3.8884   -9.5204   24.4827 H   0  0  0  0  0  0  0  0  0  0  0  0
   -7.3191  -11.6971   24.9835 H   0  0  0  0  0  0  0  0  0  0  0  0
   -7.6701  -15.4620   26.6583 H   0  0  0  0  0  0  0  0  0  0  0  0
   -4.0525  -13.5192   27.0369 H   0  0  0  0  0  0  0  0  0  0  0  0
    0.7388   -4.4668   23.4659 H   0  0  0  0  0  0  0  0  0  0  0  0
  1  2  1  0
  2  3  2  0
  3  4  1  0
  4  5  1  0
  5  6  2  0
  5  7  1  0
  7  8  1  0
  8  9  1  0
  9 10  1  0
 10 11  1  0
 10 12  1  0
 12 13  1  0
 12 14  1  0
 14 15  2  0
 14 16  1  0
 16 17  2  0
 17 18  1  0
 18 19  2  0
 19 20  1  0
 20 21  2  0
  4 22  2  0
 22 23  1  0
 23  2  1  0
 21 16  1  0
  1 24  1  0
  1 25  1  0
  1 26  1  0
  3 27  1  0
  7 28  1  0
  8 29  1  0
  8 30  1  0
  9 31  1  0
  9 32  1  0
 10 33  1  0
 11 34  1  0
 11 35  1  0
 11 36  1  0
 13 37  1  0
 13 38  1  0
 13 39  1  0
 17 40  1  0
 19 41  1  0
 21 42  1  0
 22 43  1  0
M  END
>  <Energy>  (767) 
811.35272193768185

>  <compound_id>  (767) 
17522

>  <target_id>  (767) 
1

>  <reference_id>  (767) 
66

>  <inspiration_ids>  (767) 
[66, 54]

>  <energy_score>  (767) 
776.4696712492517

>  <distance_score>  (767) 
13.25791356974416

>  <path>  (767) 
/opt/xchem-fragalysis-2/maxwin/BulkDock/SCRATCH/511014/C17522-P66/C17522-P66.minimised.mol

>  <scratch_subdir>  (767) 
/opt/xchem-fragalysis-2/maxwin/BulkDock/SCRATCH/511014/C17522-P66

>  <fragmenstein_runtime>  (767) 
54.173935651779175

>  <fragmenstein_outcome>  (767) 
too moved

>  <fragmenstein_mode>  (767) 
expansion

>  <fragmenstein_error>  (767) 


$$$$
C17522-P54
     RDKit          3D

 43 44  0  0  0  0  0  0  0  0999 V2000
    9.2926  -10.3023   14.6478 C   0  0  0  0  0  0  0  0  0  0  0  0
    7.8465  -10.0505   14.9591 C   0  0  0  0  0  0  0  0  0  0  0  0
    6.7740   -9.8380   16.1042 C   0  0  0  0  0  0  0  0  0  0  0  0
    5.3038  -10.5247   16.8871 C   0  0  0  0  0  0  0  0  0  0  0  0
    4.2833  -11.9723   17.1017 C   0  0  0  0  0  0  0  0  0  0  0  0
    4.7571  -12.8549   16.5366 O   0  0  0  0  0  0  0  0  0  0  0  0
    2.7113  -12.2006   17.8751 N   0  0  0  0  0  0  0  0  0  0  0  0
    1.4511  -13.7482   17.8579 C   0  0  0  0  0  0  0  0  0  0  0  0
   -0.0327  -15.1511   18.4584 C   0  0  0  0  0  0  0  0  0  0  0  0
   -1.9949  -15.5036   18.2060 C   0  0  0  0  0  0  0  0  0  0  0  0
   -2.7609  -14.2848   18.7850 C   0  0  0  0  0  0  0  0  0  0  0  0
   -3.4796  -16.7820   17.7596 N   0  0  0  0  0  0  0  0  0  0  0  0
   -2.2850  -16.3415   18.1626 C   0  0  0  0  0  0  0  0  0  0  0  0
   -4.0613  -18.2871   18.3020 C   0  0  0  0  0  0  0  0  0  0  0  0
   -3.6704  -19.0408   19.0593 O   0  0  0  0  0  0  0  0  0  0  0  0
   -5.4113  -18.7189   17.8018 C   0  0  0  0  0  0  0  0  0  0  0  0
   -6.4661  -18.1520   18.5228 C   0  0  0  0  0  0  0  0  0  0  0  0
   -7.6690  -18.7203   18.8365 N   0  0  0  0  0  0  0  0  0  0  0  0
   -7.7903  -20.0059   18.4986 C   0  0  0  0  0  0  0  0  0  0  0  0
   -6.8556  -20.7167   17.8570 N   0  0  0  0  0  0  0  0  0  0  0  0
   -5.6877  -20.0609   17.5684 C   0  0  0  0  0  0  0  0  0  0  0  0
    5.1991   -9.8523   15.7177 C   0  0  0  0  0  0  0  0  0  0  0  0
    6.6989   -9.5648   14.0268 S   0  0  0  0  0  0  0  0  0  0  0  0
    9.6726  -11.2156   15.1172 H   0  0  0  0  0  0  0  0  0  0  0  0
    9.4486  -10.4008   13.5679 H   0  0  0  0  0  0  0  0  0  0  0  0
    9.9349   -9.4993   15.0104 H   0  0  0  0  0  0  0  0  0  0  0  0
    6.8389   -8.7909   16.0520 H   0  0  0  0  0  0  0  0  0  0  0  0
    2.4868  -11.3663   18.3912 H   0  0  0  0  0  0  0  0  0  0  0  0
    1.7891  -13.7619   18.8109 H   0  0  0  0  0  0  0  0  0  0  0  0
    1.8049  -14.1711   16.8929 H   0  0  0  0  0  0  0  0  0  0  0  0
    0.1187  -16.1932   18.2627 H   0  0  0  0  0  0  0  0  0  0  0  0
   -0.1685  -15.0498   19.5257 H   0  0  0  0  0  0  0  0  0  0  0  0
   -2.1430  -14.8650   17.2012 H   0  0  0  0  0  0  0  0  0  0  0  0
   -3.6868  -14.7938   18.8756 H   0  0  0  0  0  0  0  0  0  0  0  0
   -2.7694  -13.2806   18.3746 H   0  0  0  0  0  0  0  0  0  0  0  0
   -2.3173  -13.8755   19.6554 H   0  0  0  0  0  0  0  0  0  0  0  0
   -1.9317  -17.2742   17.5224 H   0  0  0  0  0  0  0  0  0  0  0  0
   -2.8326  -16.6527   19.2025 H   0  0  0  0  0  0  0  0  0  0  0  0
   -1.5813  -17.0364   18.9109 H   0  0  0  0  0  0  0  0  0  0  0  0
   -6.3298  -17.2096   19.0393 H   0  0  0  0  0  0  0  0  0  0  0  0
   -8.7122  -20.5127   18.7598 H   0  0  0  0  0  0  0  0  0  0  0  0
   -4.9119  -20.7356   17.2233 H   0  0  0  0  0  0  0  0  0  0  0  0
    4.3058   -9.3390   15.4415 H   0  0  0  0  0  0  0  0  0  0  0  0
  1  2  1  0
  2  3  2  0
  3  4  1  0
  4  5  1  0
  5  6  2  0
  5  7  1  0
  7  8  1  0
  8  9  1  0
  9 10  1  0
 10 11  1  0
 10 12  1  0
 12 13  1  0
 12 14  1  0
 14 15  2  0
 14 16  1  0
 16 17  2  0
 17 18  1  0
 18 19  2  0
 19 20  1  0
 20 21  2  0
  4 22  2  0
 22 23  1  0
 23  2  1  0
 21 16  1  0
  1 24  1  0
  1 25  1  0
  1 26  1  0
  3 27  1  0
  7 28  1  0
  8 29  1  0
  8 30  1  0
  9 31  1  0
  9 32  1  0
 10 33  1  0
 11 34  1  0
 11 35  1  0
 11 36  1  0
 13 37  1  0
 13 38  1  0
 13 39  1  0
 17 40  1  0
 19 41  1  0
 21 42  1  0
 22 43  1  0
M  END
>  <Energy>  (768) 
1521.6443530753984

>  <compound_id>  (768) 
17522

>  <target_id>  (768) 
1

>  <reference_id>  (768) 
54

>  <inspiration_ids>  (768) 
[66, 54]

>  <energy_score>  (768) 
1486.761302387001

>  <distance_score>  (768) 
12.082074163667277

>  <path>  (768) 
/opt/xchem-fragalysis-2/maxwin/BulkDock/SCRATCH/511014/C17522-P54/C17522-P54.minimised.mol

>  <scratch_subdir>  (768) 
/opt/xchem-fragalysis-2/maxwin/BulkDock/SCRATCH/511014/C17522-P54

>  <fragmenstein_runtime>  (768) 
25.869536876678467

>  <fragmenstein_outcome>  (768) 
too moved

>  <fragmenstein_mode>  (768) 
expansion

>  <fragmenstein_error>  (768) 


$$$$
C17523-P66
     RDKit          3D

 43 44  0  0  0  0  0  0  0  0999 V2000
   13.2171   -5.8133   21.7300 C   0  0  0  0  0  0  0  0  0  0  0  0
   12.3749   -7.0146   21.5137 C   0  0  0  0  0  0  0  0  0  0  0  0
   12.5657   -8.3227   21.7875 C   0  0  0  0  0  0  0  0  0  0  0  0
   11.1742   -8.7016   21.6549 C   0  0  0  0  0  0  0  0  0  0  0  0
   10.1604   -8.8451   20.1611 C   0  0  0  0  0  0  0  0  0  0  0  0
    8.4978   -9.7870   19.3324 C   0  0  0  0  0  0  0  0  0  0  0  0
    8.1109   -9.1757   18.5055 O   0  0  0  0  0  0  0  0  0  0  0  0
    7.5299  -11.3383   19.9215 N   0  0  0  0  0  0  0  0  0  0  0  0
    5.7726  -12.0661   19.4358 C   0  0  0  0  0  0  0  0  0  0  0  0
    4.1689  -13.1037   20.2589 C   0  0  0  0  0  0  0  0  0  0  0  0
    2.4921  -14.4565   19.9695 C   0  0  0  0  0  0  0  0  0  0  0  0
    2.8894  -14.6385   18.5064 C   0  0  0  0  0  0  0  0  0  0  0  0
    1.0969  -15.9770   20.0353 N   0  0  0  0  0  0  0  0  0  0  0  0
    0.0570  -16.2938   20.9767 C   0  0  0  0  0  0  0  0  0  0  0  0
   -0.2038  -15.7618   21.9714 O   0  0  0  0  0  0  0  0  0  0  0  0
   -1.1920  -17.6139   20.6196 C   0  0  0  0  0  0  0  0  0  0  0  0
   -1.9263  -19.0609   21.5231 C   0  0  0  0  0  0  0  0  0  0  0  0
   -3.0801  -19.5480   20.8481 C   0  0  0  0  0  0  0  0  0  0  0  0
   -3.8549  -20.5971   21.3255 N   0  0  0  0  0  0  0  0  0  0  0  0
   -3.5311  -21.2714   22.5006 C   0  0  0  0  0  0  0  0  0  0  0  0
   -2.4923  -21.0733   23.3751 N   0  0  0  0  0  0  0  0  0  0  0  0
   -1.6523  -20.0414   23.0055 C   0  0  0  0  0  0  0  0  0  0  0  0
   10.6957   -6.9270   21.2767 S   0  0  0  0  0  0  0  0  0  0  0  0
   14.2787   -6.0809   21.7220 H   0  0  0  0  0  0  0  0  0  0  0  0
   12.9903   -5.3483   22.6948 H   0  0  0  0  0  0  0  0  0  0  0  0
   13.0535   -5.0730   20.9400 H   0  0  0  0  0  0  0  0  0  0  0  0
   13.3268   -8.6714   22.4745 H   0  0  0  0  0  0  0  0  0  0  0  0
   10.8301   -9.1348   22.6354 H   0  0  0  0  0  0  0  0  0  0  0  0
    8.0627  -11.8317   20.6001 H   0  0  0  0  0  0  0  0  0  0  0  0
    6.0720  -13.0704   19.2675 H   0  0  0  0  0  0  0  0  0  0  0  0
    5.6038  -11.4631   18.6284 H   0  0  0  0  0  0  0  0  0  0  0  0
    4.9801  -13.5538   20.8307 H   0  0  0  0  0  0  0  0  0  0  0  0
    3.8837  -12.5701   21.1627 H   0  0  0  0  0  0  0  0  0  0  0  0
    2.6335  -14.6972   20.9845 H   0  0  0  0  0  0  0  0  0  0  0  0
    2.0575  -14.3103   17.8912 H   0  0  0  0  0  0  0  0  0  0  0  0
    3.7759  -14.0663   18.2926 H   0  0  0  0  0  0  0  0  0  0  0  0
    3.1282  -15.6094   18.1817 H   0  0  0  0  0  0  0  0  0  0  0  0
    1.0031  -16.5709   19.2479 H   0  0  0  0  0  0  0  0  0  0  0  0
   -2.1144  -17.0193   20.4736 H   0  0  0  0  0  0  0  0  0  0  0  0
   -1.1538  -17.8532   19.5504 H   0  0  0  0  0  0  0  0  0  0  0  0
   -3.4310  -19.1110   19.9187 H   0  0  0  0  0  0  0  0  0  0  0  0
   -4.2127  -22.0779   22.7626 H   0  0  0  0  0  0  0  0  0  0  0  0
   -0.8575  -19.9085   23.7370 H   0  0  0  0  0  0  0  0  0  0  0  0
  1  2  1  0
  2  3  2  0
  3  4  1  0
  4  5  2  0
  5  6  1  0
  6  7  2  0
  6  8  1  0
  8  9  1  0
  9 10  1  0
 10 11  1  0
 11 12  1  0
 11 13  1  0
 13 14  1  0
 14 15  2  0
 14 16  1  0
 16 17  1  0
 17 18  2  0
 18 19  1  0
 19 20  2  0
 20 21  1  0
 21 22  2  0
  5 23  1  0
 23  2  1  0
 22 17  1  0
  1 24  1  0
  1 25  1  0
  1 26  1  0
  3 27  1  0
  4 28  1  0
  8 29  1  0
  9 30  1  0
  9 31  1  0
 10 32  1  0
 10 33  1  0
 11 34  1  0
 12 35  1  0
 12 36  1  0
 12 37  1  0
 13 38  1  0
 16 39  1  0
 16 40  1  0
 18 41  1  0
 20 42  1  0
 22 43  1  0
M  END
>  <Energy>  (769) 
1149.5802939881894

>  <compound_id>  (769) 
17523

>  <target_id>  (769) 
1

>  <reference_id>  (769) 
66

>  <inspiration_ids>  (769) 
[66, 54]

>  <energy_score>  (769) 
1136.497736633421

>  <distance_score>  (769) 
10.891099405395984

>  <path>  (769) 
/opt/xchem-fragalysis-2/maxwin/BulkDock/SCRATCH/511014/C17523-P66/C17523-P66.minimised.mol

>  <scratch_subdir>  (769) 
/opt/xchem-fragalysis-2/maxwin/BulkDock/SCRATCH/511014/C17523-P66

>  <fragmenstein_runtime>  (769) 
31.18945288658142

>  <fragmenstein_outcome>  (769) 
too moved

>  <fragmenstein_mode>  (769) 
expansion

>  <fragmenstein_error>  (769) 


$$$$
C17523-P54
     RDKit          3D

 43 44  0  0  0  0  0  0  0  0999 V2000
   11.5313   -9.2915   21.7138 C   0  0  0  0  0  0  0  0  0  0  0  0
   10.0942   -8.9159   21.5906 C   0  0  0  0  0  0  0  0  0  0  0  0
    9.5080   -7.6879   21.7996 C   0  0  0  0  0  0  0  0  0  0  0  0
    8.1011   -7.7460   21.6003 C   0  0  0  0  0  0  0  0  0  0  0  0
    7.6571   -8.9918   21.1495 C   0  0  0  0  0  0  0  0  0  0  0  0
    6.3039   -9.1835   20.5245 C   0  0  0  0  0  0  0  0  0  0  0  0
    5.4875   -8.5194   21.0359 O   0  0  0  0  0  0  0  0  0  0  0  0
    6.2226  -10.0467   19.3636 N   0  0  0  0  0  0  0  0  0  0  0  0
    4.8259  -10.3512   18.1429 C   0  0  0  0  0  0  0  0  0  0  0  0
    3.8817  -11.8013   17.8558 C   0  0  0  0  0  0  0  0  0  0  0  0
    2.4670  -12.5945   18.9475 C   0  0  0  0  0  0  0  0  0  0  0  0
    2.4792  -12.6329   20.7475 C   0  0  0  0  0  0  0  0  0  0  0  0
    1.3451  -14.0363   18.2502 N   0  0  0  0  0  0  0  0  0  0  0  0
   -0.1239  -14.9779   18.9932 C   0  0  0  0  0  0  0  0  0  0  0  0
   -0.3683  -14.7230   20.0824 O   0  0  0  0  0  0  0  0  0  0  0  0
   -1.4318  -16.1223   18.3427 C   0  0  0  0  0  0  0  0  0  0  0  0
   -3.0366  -16.4463   18.4690 C   0  0  0  0  0  0  0  0  0  0  0  0
   -3.5517  -17.6923   18.0785 C   0  0  0  0  0  0  0  0  0  0  0  0
   -4.8704  -18.0355   18.0362 N   0  0  0  0  0  0  0  0  0  0  0  0
   -5.7360  -17.0583   18.3313 C   0  0  0  0  0  0  0  0  0  0  0  0
   -5.4042  -15.7945   18.6348 N   0  0  0  0  0  0  0  0  0  0  0  0
   -4.0669  -15.5211   18.6642 C   0  0  0  0  0  0  0  0  0  0  0  0
    8.9292  -10.1078   21.1988 S   0  0  0  0  0  0  0  0  0  0  0  0
   11.8560   -9.8969   20.8609 H   0  0  0  0  0  0  0  0  0  0  0  0
   11.7017   -9.8617   22.6325 H   0  0  0  0  0  0  0  0  0  0  0  0
   12.1649   -8.3990   21.7480 H   0  0  0  0  0  0  0  0  0  0  0  0
   10.0531   -6.7995   22.0972 H   0  0  0  0  0  0  0  0  0  0  0  0
    7.4370   -6.8916   21.6857 H   0  0  0  0  0  0  0  0  0  0  0  0
    7.1668  -10.4126   19.1472 H   0  0  0  0  0  0  0  0  0  0  0  0
    5.1964  -10.1508   17.1353 H   0  0  0  0  0  0  0  0  0  0  0  0
    4.0956   -9.6616   18.5400 H   0  0  0  0  0  0  0  0  0  0  0  0
    3.3581  -11.6357   16.9222 H   0  0  0  0  0  0  0  0  0  0  0  0
    4.6053  -12.4803   17.4358 H   0  0  0  0  0  0  0  0  0  0  0  0
    2.2099  -11.5527   18.8446 H   0  0  0  0  0  0  0  0  0  0  0  0
    1.5496  -12.9748   21.1393 H   0  0  0  0  0  0  0  0  0  0  0  0
    3.2585  -13.2754   21.1644 H   0  0  0  0  0  0  0  0  0  0  0  0
    2.4878  -11.5982   21.1076 H   0  0  0  0  0  0  0  0  0  0  0  0
    1.4188  -14.2758   17.2610 H   0  0  0  0  0  0  0  0  0  0  0  0
   -1.2274  -16.9544   17.6564 H   0  0  0  0  0  0  0  0  0  0  0  0
   -1.9031  -15.2319   17.8581 H   0  0  0  0  0  0  0  0  0  0  0  0
   -2.9031  -18.5037   17.7642 H   0  0  0  0  0  0  0  0  0  0  0  0
   -6.7902  -17.3075   18.3160 H   0  0  0  0  0  0  0  0  0  0  0  0
   -3.8435  -14.4747   18.8575 H   0  0  0  0  0  0  0  0  0  0  0  0
  1  2  1  0
  2  3  2  0
  3  4  1  0
  4  5  2  0
  5  6  1  0
  6  7  2  0
  6  8  1  0
  8  9  1  0
  9 10  1  0
 10 11  1  0
 11 12  1  0
 11 13  1  0
 13 14  1  0
 14 15  2  0
 14 16  1  0
 16 17  1  0
 17 18  2  0
 18 19  1  0
 19 20  2  0
 20 21  1  0
 21 22  2  0
  5 23  1  0
 23  2  1  0
 22 17  1  0
  1 24  1  0
  1 25  1  0
  1 26  1  0
  3 27  1  0
  4 28  1  0
  8 29  1  0
  9 30  1  0
  9 31  1  0
 10 32  1  0
 10 33  1  0
 11 34  1  0
 12 35  1  0
 12 36  1  0
 12 37  1  0
 13 38  1  0
 16 39  1  0
 16 40  1  0
 18 41  1  0
 20 42  1  0
 22 43  1  0
M  END
>  <Energy>  (770) 
435.92442454534125

>  <compound_id>  (770) 
17523

>  <target_id>  (770) 
1

>  <reference_id>  (770) 
54

>  <inspiration_ids>  (770) 
[66, 54]

>  <energy_score>  (770) 
422.84186719056174

>  <distance_score>  (770) 
12.702649154972171

>  <path>  (770) 
/opt/xchem-fragalysis-2/maxwin/BulkDock/SCRATCH/511014/C17523-P54/C17523-P54.minimised.mol

>  <scratch_subdir>  (770) 
/opt/xchem-fragalysis-2/maxwin/BulkDock/SCRATCH/511014/C17523-P54

>  <fragmenstein_runtime>  (770) 
22.32267165184021

>  <fragmenstein_outcome>  (770) 
too moved

>  <fragmenstein_mode>  (770) 
expansion

>  <fragmenstein_error>  (770) 


$$$$
C17524-P66
     RDKit          3D

 46 47  0  0  0  0  0  0  0  0999 V2000
   13.2501   -9.8786   23.2583 C   0  0  0  0  0  0  0  0  0  0  0  0
   11.9055   -9.7071   23.8775 C   0  0  0  0  0  0  0  0  0  0  0  0
   11.2732   -8.5428   24.2470 C   0  0  0  0  0  0  0  0  0  0  0  0
    9.9954   -8.8006   24.8299 C   0  0  0  0  0  0  0  0  0  0  0  0
    9.6109  -10.1389   24.7700 C   0  0  0  0  0  0  0  0  0  0  0  0
    8.2573  -10.8209   25.1835 C   0  0  0  0  0  0  0  0  0  0  0  0
    7.7147   -9.9792   26.3497 C   0  0  0  0  0  0  0  0  0  0  0  0
    7.0732  -10.9747   24.0408 C   0  0  0  0  0  0  0  0  0  0  0  0
    6.1361  -10.2866   24.1669 O   0  0  0  0  0  0  0  0  0  0  0  0
    7.3795  -11.9248   23.0566 N   0  0  0  0  0  0  0  0  0  0  0  0
    6.4635  -12.4225   21.4236 C   0  0  0  0  0  0  0  0  0  0  0  0
    5.0743  -13.8902   21.3871 C   0  0  0  0  0  0  0  0  0  0  0  0
    4.0132  -12.9266   21.0419 C   0  0  0  0  0  0  0  0  0  0  0  0
    4.1231  -15.1141   23.1188 C   0  0  0  0  0  0  0  0  0  0  0  0
    3.8832  -16.9750   23.6178 N   0  0  0  0  0  0  0  0  0  0  0  0
    3.3455  -17.7679   25.1524 C   0  0  0  0  0  0  0  0  0  0  0  0
    3.0904  -17.2762   26.2606 O   0  0  0  0  0  0  0  0  0  0  0  0
    3.0006  -19.3243   25.1632 C   0  0  0  0  0  0  0  0  0  0  0  0
    2.1919  -19.7252   26.2518 C   0  0  0  0  0  0  0  0  0  0  0  0
    1.4820  -20.8832   26.3886 N   0  0  0  0  0  0  0  0  0  0  0  0
    1.6132  -21.7303   25.3714 C   0  0  0  0  0  0  0  0  0  0  0  0
    2.3724  -21.5186   24.2862 N   0  0  0  0  0  0  0  0  0  0  0  0
    3.0300  -20.3111   24.2025 C   0  0  0  0  0  0  0  0  0  0  0  0
   10.9707  -11.0869   24.2879 S   0  0  0  0  0  0  0  0  0  0  0  0
   13.9303  -10.3928   23.9452 H   0  0  0  0  0  0  0  0  0  0  0  0
   13.6922   -8.9081   23.0097 H   0  0  0  0  0  0  0  0  0  0  0  0
   13.1807  -10.4599   22.3328 H   0  0  0  0  0  0  0  0  0  0  0  0
   11.7093   -7.5562   24.1398 H   0  0  0  0  0  0  0  0  0  0  0  0
    9.3552   -8.0151   25.2175 H   0  0  0  0  0  0  0  0  0  0  0  0
    8.4658  -11.8339   25.5521 H   0  0  0  0  0  0  0  0  0  0  0  0
    8.4682   -9.8411   27.1337 H   0  0  0  0  0  0  0  0  0  0  0  0
    7.3669   -8.9916   26.0267 H   0  0  0  0  0  0  0  0  0  0  0  0
    6.8629  -10.4876   26.8144 H   0  0  0  0  0  0  0  0  0  0  0  0
    8.3365  -12.2799   23.2197 H   0  0  0  0  0  0  0  0  0  0  0  0
    7.3000  -12.7985   20.8909 H   0  0  0  0  0  0  0  0  0  0  0  0
    6.0068  -11.5328   20.9812 H   0  0  0  0  0  0  0  0  0  0  0  0
    5.4752  -14.0024   20.3043 H   0  0  0  0  0  0  0  0  0  0  0  0
    4.3374  -12.5303   20.0841 H   0  0  0  0  0  0  0  0  0  0  0  0
    3.1660  -13.5481   20.9208 H   0  0  0  0  0  0  0  0  0  0  0  0
    3.8586  -12.2251   21.8585 H   0  0  0  0  0  0  0  0  0  0  0  0
    4.6176  -14.9594   24.1025 H   0  0  0  0  0  0  0  0  0  0  0  0
    3.1233  -14.6694   23.2455 H   0  0  0  0  0  0  0  0  0  0  0  0
    4.0739  -17.6360   22.9731 H   0  0  0  0  0  0  0  0  0  0  0  0
    2.0375  -19.0569   27.0994 H   0  0  0  0  0  0  0  0  0  0  0  0
    1.0768  -22.6700   25.4253 H   0  0  0  0  0  0  0  0  0  0  0  0
    3.5250  -20.1550   23.2472 H   0  0  0  0  0  0  0  0  0  0  0  0
  1  2  1  0
  2  3  2  0
  3  4  1  0
  4  5  2  0
  5  6  1  0
  6  7  1  0
  6  8  1  0
  8  9  2  0
  8 10  1  0
 10 11  1  0
 11 12  1  0
 12 13  1  0
 12 14  1  0
 14 15  1  0
 15 16  1  0
 16 17  2  0
 16 18  1  0
 18 19  2  0
 19 20  1  0
 20 21  2  0
 21 22  1  0
 22 23  2  0
  5 24  1  0
 24  2  1  0
 23 18  1  0
  1 25  1  0
  1 26  1  0
  1 27  1  0
  3 28  1  0
  4 29  1  0
  6 30  1  0
  7 31  1  0
  7 32  1  0
  7 33  1  0
 10 34  1  0
 11 35  1  0
 11 36  1  0
 12 37  1  0
 13 38  1  0
 13 39  1  0
 13 40  1  0
 14 41  1  0
 14 42  1  0
 15 43  1  0
 19 44  1  0
 21 45  1  0
 23 46  1  0
M  END
>  <Energy>  (771) 
542.97252805917776

>  <compound_id>  (771) 
17524

>  <target_id>  (771) 
1

>  <reference_id>  (771) 
66

>  <inspiration_ids>  (771) 
[66, 54]

>  <energy_score>  (771) 
484.9502079837912

>  <distance_score>  (771) 
13.670926458580691

>  <path>  (771) 
/opt/xchem-fragalysis-2/maxwin/BulkDock/SCRATCH/511014/C17524-P66/C17524-P66.minimised.mol

>  <scratch_subdir>  (771) 
/opt/xchem-fragalysis-2/maxwin/BulkDock/SCRATCH/511014/C17524-P66

>  <fragmenstein_runtime>  (771) 
43.684147119522095

>  <fragmenstein_outcome>  (771) 
too moved

>  <fragmenstein_mode>  (771) 
expansion

>  <fragmenstein_error>  (771) 


$$$$
C17524-P54
     RDKit          3D

 46 47  0  0  0  0  0  0  0  0999 V2000
    9.7985   -9.0711   22.7972 C   0  0  0  0  0  0  0  0  0  0  0  0
    8.3693   -9.4372   22.6090 C   0  0  0  0  0  0  0  0  0  0  0  0
    7.3808   -9.5561   23.5465 C   0  0  0  0  0  0  0  0  0  0  0  0
    6.1012   -9.8917   22.9782 C   0  0  0  0  0  0  0  0  0  0  0  0
    6.0727   -9.8802   21.5832 C   0  0  0  0  0  0  0  0  0  0  0  0
    4.8247   -9.2546   20.5093 C   0  0  0  0  0  0  0  0  0  0  0  0
    5.5320   -7.6086   21.1468 C   0  0  0  0  0  0  0  0  0  0  0  0
    3.1017  -10.2118   19.6890 C   0  0  0  0  0  0  0  0  0  0  0  0
    3.3004  -10.4871   18.5263 O   0  0  0  0  0  0  0  0  0  0  0  0
    1.5686  -10.3626   20.7022 N   0  0  0  0  0  0  0  0  0  0  0  0
   -0.2573  -10.8501   20.2338 C   0  0  0  0  0  0  0  0  0  0  0  0
   -1.1733  -12.6498   21.1029 C   0  0  0  0  0  0  0  0  0  0  0  0
   -0.4323  -12.6724   22.3497 C   0  0  0  0  0  0  0  0  0  0  0  0
   -2.8797  -13.8287   21.8297 C   0  0  0  0  0  0  0  0  0  0  0  0
   -4.3885  -14.8919   21.0873 N   0  0  0  0  0  0  0  0  0  0  0  0
   -6.1616  -14.8182   21.3776 C   0  0  0  0  0  0  0  0  0  0  0  0
   -6.8156  -14.0401   22.0281 O   0  0  0  0  0  0  0  0  0  0  0  0
   -7.0787  -15.9691   20.8418 C   0  0  0  0  0  0  0  0  0  0  0  0
   -8.4048  -15.7145   20.5141 C   0  0  0  0  0  0  0  0  0  0  0  0
   -9.4291  -16.6215   20.5168 N   0  0  0  0  0  0  0  0  0  0  0  0
   -9.1312  -17.8606   20.9266 C   0  0  0  0  0  0  0  0  0  0  0  0
   -7.9347  -18.2283   21.3753 N   0  0  0  0  0  0  0  0  0  0  0  0
   -6.9756  -17.2609   21.3573 C   0  0  0  0  0  0  0  0  0  0  0  0
    7.7702   -9.8352   21.0901 S   0  0  0  0  0  0  0  0  0  0  0  0
    9.9602   -8.0238   22.5215 H   0  0  0  0  0  0  0  0  0  0  0  0
   10.4591   -9.6942   22.1854 H   0  0  0  0  0  0  0  0  0  0  0  0
   10.0983   -9.1952   23.8431 H   0  0  0  0  0  0  0  0  0  0  0  0
    7.5522   -9.3902   24.6024 H   0  0  0  0  0  0  0  0  0  0  0  0
    5.2340   -9.9229   23.6092 H   0  0  0  0  0  0  0  0  0  0  0  0
    5.4103   -9.2130   19.5772 H   0  0  0  0  0  0  0  0  0  0  0  0
    5.8463   -7.6391   22.2008 H   0  0  0  0  0  0  0  0  0  0  0  0
    6.4647   -7.3719   20.6196 H   0  0  0  0  0  0  0  0  0  0  0  0
    4.8250   -6.7628   21.1655 H   0  0  0  0  0  0  0  0  0  0  0  0
    1.7461  -10.1290   21.6656 H   0  0  0  0  0  0  0  0  0  0  0  0
   -0.8511  -10.1109   19.5944 H   0  0  0  0  0  0  0  0  0  0  0  0
   -0.1316   -9.9610   20.7501 H   0  0  0  0  0  0  0  0  0  0  0  0
   -0.9054  -13.3656   20.3299 H   0  0  0  0  0  0  0  0  0  0  0  0
    0.4321  -12.5470   21.7360 H   0  0  0  0  0  0  0  0  0  0  0  0
    0.1745  -11.9151   22.9744 H   0  0  0  0  0  0  0  0  0  0  0  0
   -1.3872  -12.4116   22.8349 H   0  0  0  0  0  0  0  0  0  0  0  0
   -3.4226  -13.4739   22.6885 H   0  0  0  0  0  0  0  0  0  0  0  0
   -2.4408  -14.3435   22.6658 H   0  0  0  0  0  0  0  0  0  0  0  0
   -4.1630  -15.6318   20.4165 H   0  0  0  0  0  0  0  0  0  0  0  0
   -8.7401  -14.7021   20.2939 H   0  0  0  0  0  0  0  0  0  0  0  0
   -9.9169  -18.6081   20.9048 H   0  0  0  0  0  0  0  0  0  0  0  0
   -6.1176  -17.5975   21.9146 H   0  0  0  0  0  0  0  0  0  0  0  0
  1  2  1  0
  2  3  2  0
  3  4  1  0
  4  5  2  0
  5  6  1  0
  6  7  1  0
  6  8  1  0
  8  9  2  0
  8 10  1  0
 10 11  1  0
 11 12  1  0
 12 13  1  0
 12 14  1  0
 14 15  1  0
 15 16  1  0
 16 17  2  0
 16 18  1  0
 18 19  2  0
 19 20  1  0
 20 21  2  0
 21 22  1  0
 22 23  2  0
  5 24  1  0
 24  2  1  0
 23 18  1  0
  1 25  1  0
  1 26  1  0
  1 27  1  0
  3 28  1  0
  4 29  1  0
  6 30  1  0
  7 31  1  0
  7 32  1  0
  7 33  1  0
 10 34  1  0
 11 35  1  0
 11 36  1  0
 12 37  1  0
 13 38  1  0
 13 39  1  0
 13 40  1  0
 14 41  1  0
 14 42  1  0
 15 43  1  0
 19 44  1  0
 21 45  1  0
 23 46  1  0
M  END
>  <Energy>  (772) 
932.61185756654743

>  <compound_id>  (772) 
17524

>  <target_id>  (772) 
1

>  <reference_id>  (772) 
54

>  <inspiration_ids>  (772) 
[66, 54]

>  <energy_score>  (772) 
874.5895374911781

>  <distance_score>  (772) 
12.02846663188826

>  <path>  (772) 
/opt/xchem-fragalysis-2/maxwin/BulkDock/SCRATCH/511014/C17524-P54/C17524-P54.minimised.mol

>  <scratch_subdir>  (772) 
/opt/xchem-fragalysis-2/maxwin/BulkDock/SCRATCH/511014/C17524-P54

>  <fragmenstein_runtime>  (772) 
23.961868286132812

>  <fragmenstein_outcome>  (772) 
too moved

>  <fragmenstein_mode>  (772) 
expansion

>  <fragmenstein_error>  (772) 


$$$$
C17525-P66
     RDKit          3D

 46 47  0  0  0  0  0  0  0  0999 V2000
   10.7939  -11.4347   17.7464 C   0  0  0  0  0  0  0  0  0  0  0  0
    9.5127  -10.9683   18.3808 C   0  0  0  0  0  0  0  0  0  0  0  0
    8.4069  -10.4703   17.8267 C   0  0  0  0  0  0  0  0  0  0  0  0
    7.0717  -10.4974   18.9415 C   0  0  0  0  0  0  0  0  0  0  0  0
    6.7072  -11.4743   19.9732 C   0  0  0  0  0  0  0  0  0  0  0  0
    5.4714  -12.8436   20.0239 C   0  0  0  0  0  0  0  0  0  0  0  0
    5.8166  -13.6817   19.3352 O   0  0  0  0  0  0  0  0  0  0  0  0
    3.8392  -13.0541   20.7819 N   0  0  0  0  0  0  0  0  0  0  0  0
    2.4437  -14.4291   20.5385 C   0  0  0  0  0  0  0  0  0  0  0  0
    0.9459  -15.8475   20.7991 C   0  0  0  0  0  0  0  0  0  0  0  0
    0.9637  -16.1056   19.4157 C   0  0  0  0  0  0  0  0  0  0  0  0
    2.5275  -15.8045   18.1292 C   0  0  0  0  0  0  0  0  0  0  0  0
    2.0947  -17.5939   17.3110 C   0  0  0  0  0  0  0  0  0  0  0  0
    3.9276  -15.2126   18.1521 C   0  0  0  0  0  0  0  0  0  0  0  0
   -0.8179  -16.4480   20.3757 N   0  0  0  0  0  0  0  0  0  0  0  0
   -1.5310  -17.6604   20.7499 C   0  0  0  0  0  0  0  0  0  0  0  0
   -1.2176  -18.5369   21.4781 O   0  0  0  0  0  0  0  0  0  0  0  0
   -2.9380  -17.9553   20.1508 C   0  0  0  0  0  0  0  0  0  0  0  0
   -3.3598  -19.2882   20.0616 C   0  0  0  0  0  0  0  0  0  0  0  0
   -4.6429  -19.7708   20.1055 N   0  0  0  0  0  0  0  0  0  0  0  0
   -5.5951  -18.8599   20.2792 C   0  0  0  0  0  0  0  0  0  0  0  0
   -5.3617  -17.5508   20.3888 N   0  0  0  0  0  0  0  0  0  0  0  0
   -4.0446  -17.1751   20.3341 C   0  0  0  0  0  0  0  0  0  0  0  0
    8.9962  -11.5648   19.8345 S   0  0  0  0  0  0  0  0  0  0  0  0
   11.5746  -11.5741   18.4992 H   0  0  0  0  0  0  0  0  0  0  0  0
   10.6589  -12.3987   17.2427 H   0  0  0  0  0  0  0  0  0  0  0  0
   11.1366  -10.7525   16.9643 H   0  0  0  0  0  0  0  0  0  0  0  0
    8.3015  -10.4883   16.7489 H   0  0  0  0  0  0  0  0  0  0  0  0
    7.5068   -9.7240   19.4617 H   0  0  0  0  0  0  0  0  0  0  0  0
    3.6914  -12.2991   21.4230 H   0  0  0  0  0  0  0  0  0  0  0  0
    2.6267  -14.5031   19.5285 H   0  0  0  0  0  0  0  0  0  0  0  0
    2.9043  -14.6384   21.4865 H   0  0  0  0  0  0  0  0  0  0  0  0
    0.4177  -15.5554   21.7106 H   0  0  0  0  0  0  0  0  0  0  0  0
    0.7798  -17.2188   19.4177 H   0  0  0  0  0  0  0  0  0  0  0  0
    0.0537  -15.5141   19.1267 H   0  0  0  0  0  0  0  0  0  0  0  0
    2.1269  -14.9092   17.5611 H   0  0  0  0  0  0  0  0  0  0  0  0
    2.1092  -17.4528   16.2603 H   0  0  0  0  0  0  0  0  0  0  0  0
    2.5740  -18.5872   17.3578 H   0  0  0  0  0  0  0  0  0  0  0  0
    1.2133  -18.0195   17.7927 H   0  0  0  0  0  0  0  0  0  0  0  0
    3.9027  -14.1477   18.3342 H   0  0  0  0  0  0  0  0  0  0  0  0
    4.4069  -15.3327   17.2101 H   0  0  0  0  0  0  0  0  0  0  0  0
    4.6611  -15.7345   18.7349 H   0  0  0  0  0  0  0  0  0  0  0  0
   -1.4208  -15.8763   19.7929 H   0  0  0  0  0  0  0  0  0  0  0  0
   -2.6430  -20.0974   20.0255 H   0  0  0  0  0  0  0  0  0  0  0  0
   -6.6219  -19.2019   20.3267 H   0  0  0  0  0  0  0  0  0  0  0  0
   -3.9075  -16.1543   20.5659 H   0  0  0  0  0  0  0  0  0  0  0  0
  1  2  1  0
  2  3  2  0
  3  4  1  0
  4  5  2  0
  5  6  1  0
  6  7  2  0
  6  8  1  0
  8  9  1  0
  9 10  1  0
 10 11  1  0
 11 12  1  0
 12 13  1  0
 12 14  1  0
 10 15  1  0
 15 16  1  0
 16 17  2  0
 16 18  1  0
 18 19  2  0
 19 20  1  0
 20 21  2  0
 21 22  1  0
 22 23  2  0
  5 24  1  0
 24  2  1  0
 23 18  1  0
  1 25  1  0
  1 26  1  0
  1 27  1  0
  3 28  1  0
  4 29  1  0
  8 30  1  0
  9 31  1  0
  9 32  1  0
 10 33  1  0
 11 34  1  0
 11 35  1  0
 12 36  1  0
 13 37  1  0
 13 38  1  0
 13 39  1  0
 14 40  1  0
 14 41  1  0
 14 42  1  0
 15 43  1  0
 19 44  1  0
 21 45  1  0
 23 46  1  0
M  END
>  <Energy>  (773) 
951.65503555314615

>  <compound_id>  (773) 
17525

>  <target_id>  (773) 
1

>  <reference_id>  (773) 
66

>  <inspiration_ids>  (773) 
[66, 54]

>  <energy_score>  (773) 
904.8063071396809

>  <distance_score>  (773) 
12.633556882087868

>  <path>  (773) 
/opt/xchem-fragalysis-2/maxwin/BulkDock/SCRATCH/511014/C17525-P66/C17525-P66.minimised.mol

>  <scratch_subdir>  (773) 
/opt/xchem-fragalysis-2/maxwin/BulkDock/SCRATCH/511014/C17525-P66

>  <fragmenstein_runtime>  (773) 
27.730448722839355

>  <fragmenstein_outcome>  (773) 
too moved

>  <fragmenstein_mode>  (773) 
expansion

>  <fragmenstein_error>  (773) 


$$$$
C17525-P54
     RDKit          3D

 46 47  0  0  0  0  0  0  0  0999 V2000
    7.1865   -7.5255   24.8944 C   0  0  0  0  0  0  0  0  0  0  0  0
    6.3301   -8.6649   24.4680 C   0  0  0  0  0  0  0  0  0  0  0  0
    6.4741   -9.5007   23.4152 C   0  0  0  0  0  0  0  0  0  0  0  0
    5.3623  -10.4021   23.3724 C   0  0  0  0  0  0  0  0  0  0  0  0
    4.4697  -10.7474   24.4998 C   0  0  0  0  0  0  0  0  0  0  0  0
    2.9600  -11.8492   24.7467 C   0  0  0  0  0  0  0  0  0  0  0  0
    2.0573  -11.4767   24.1188 O   0  0  0  0  0  0  0  0  0  0  0  0
    2.8472  -13.0577   25.7844 N   0  0  0  0  0  0  0  0  0  0  0  0
    1.4397  -14.0093   26.3496 C   0  0  0  0  0  0  0  0  0  0  0  0
    0.9215  -15.2947   25.7161 C   0  0  0  0  0  0  0  0  0  0  0  0
    2.6713  -15.7005   24.9368 C   0  0  0  0  0  0  0  0  0  0  0  0
    3.6199  -17.0792   24.1754 C   0  0  0  0  0  0  0  0  0  0  0  0
    2.9934  -17.2159   22.9019 C   0  0  0  0  0  0  0  0  0  0  0  0
    4.6118  -18.2012   24.7028 C   0  0  0  0  0  0  0  0  0  0  0  0
   -0.7386  -15.9605   26.2491 N   0  0  0  0  0  0  0  0  0  0  0  0
   -1.9498  -16.1364   25.5396 C   0  0  0  0  0  0  0  0  0  0  0  0
   -2.2528  -15.8278   24.4435 O   0  0  0  0  0  0  0  0  0  0  0  0
   -2.9658  -16.9450   26.2943 C   0  0  0  0  0  0  0  0  0  0  0  0
   -2.5521  -18.0227   27.0825 C   0  0  0  0  0  0  0  0  0  0  0  0
   -3.2943  -19.0864   27.4222 N   0  0  0  0  0  0  0  0  0  0  0  0
   -4.5232  -19.0427   26.9257 C   0  0  0  0  0  0  0  0  0  0  0  0
   -5.0901  -18.0166   26.2616 N   0  0  0  0  0  0  0  0  0  0  0  0
   -4.2854  -16.9913   25.9255 C   0  0  0  0  0  0  0  0  0  0  0  0
    4.8315   -8.9368   25.2116 S   0  0  0  0  0  0  0  0  0  0  0  0
    6.7017   -6.5700   24.6686 H   0  0  0  0  0  0  0  0  0  0  0  0
    8.1499   -7.5460   24.3739 H   0  0  0  0  0  0  0  0  0  0  0  0
    7.3888   -7.5697   25.9697 H   0  0  0  0  0  0  0  0  0  0  0  0
    7.2266   -9.3983   22.6429 H   0  0  0  0  0  0  0  0  0  0  0  0
    5.1782  -10.8096   22.4443 H   0  0  0  0  0  0  0  0  0  0  0  0
    3.7902  -13.2567   26.1507 H   0  0  0  0  0  0  0  0  0  0  0  0
    1.6323  -14.1291   27.4266 H   0  0  0  0  0  0  0  0  0  0  0  0
    0.5905  -13.4611   26.7163 H   0  0  0  0  0  0  0  0  0  0  0  0
    0.4371  -16.0405   25.0920 H   0  0  0  0  0  0  0  0  0  0  0  0
    2.7466  -15.1502   24.0636 H   0  0  0  0  0  0  0  0  0  0  0  0
    3.3380  -15.1015   25.5343 H   0  0  0  0  0  0  0  0  0  0  0  0
    4.3632  -16.5885   23.7265 H   0  0  0  0  0  0  0  0  0  0  0  0
    3.0139  -16.2264   22.4371 H   0  0  0  0  0  0  0  0  0  0  0  0
    3.3410  -17.9771   22.2257 H   0  0  0  0  0  0  0  0  0  0  0  0
    1.9670  -17.2730   23.1334 H   0  0  0  0  0  0  0  0  0  0  0  0
    4.9307  -17.9005   25.6898 H   0  0  0  0  0  0  0  0  0  0  0  0
    4.2027  -19.2197   24.7445 H   0  0  0  0  0  0  0  0  0  0  0  0
    5.4978  -18.3581   24.1179 H   0  0  0  0  0  0  0  0  0  0  0  0
   -0.8112  -16.4295   27.1472 H   0  0  0  0  0  0  0  0  0  0  0  0
   -1.5274  -18.1487   27.4095 H   0  0  0  0  0  0  0  0  0  0  0  0
   -5.1025  -19.9458   27.0639 H   0  0  0  0  0  0  0  0  0  0  0  0
   -4.7223  -16.2458   25.2680 H   0  0  0  0  0  0  0  0  0  0  0  0
  1  2  1  0
  2  3  2  0
  3  4  1  0
  4  5  2  0
  5  6  1  0
  6  7  2  0
  6  8  1  0
  8  9  1  0
  9 10  1  0
 10 11  1  0
 11 12  1  0
 12 13  1  0
 12 14  1  0
 10 15  1  0
 15 16  1  0
 16 17  2  0
 16 18  1  0
 18 19  2  0
 19 20  1  0
 20 21  2  0
 21 22  1  0
 22 23  2  0
  5 24  1  0
 24  2  1  0
 23 18  1  0
  1 25  1  0
  1 26  1  0
  1 27  1  0
  3 28  1  0
  4 29  1  0
  8 30  1  0
  9 31  1  0
  9 32  1  0
 10 33  1  0
 11 34  1  0
 11 35  1  0
 12 36  1  0
 13 37  1  0
 13 38  1  0
 13 39  1  0
 14 40  1  0
 14 41  1  0
 14 42  1  0
 15 43  1  0
 19 44  1  0
 21 45  1  0
 23 46  1  0
M  END
>  <Energy>  (774) 
496.11489883743394

>  <compound_id>  (774) 
17525

>  <target_id>  (774) 
1

>  <reference_id>  (774) 
54

>  <inspiration_ids>  (774) 
[66, 54]

>  <energy_score>  (774) 
449.2661704239873

>  <distance_score>  (774) 
13.12750030309713

>  <path>  (774) 
/opt/xchem-fragalysis-2/maxwin/BulkDock/SCRATCH/511014/C17525-P54/C17525-P54.minimised.mol

>  <scratch_subdir>  (774) 
/opt/xchem-fragalysis-2/maxwin/BulkDock/SCRATCH/511014/C17525-P54

>  <fragmenstein_runtime>  (774) 
35.32067632675171

>  <fragmenstein_outcome>  (774) 
too moved

>  <fragmenstein_mode>  (774) 
expansion

>  <fragmenstein_error>  (774) 


$$$$
C17526-P66
     RDKit          3D

 46 47  0  0  0  0  0  0  0  0999 V2000
    9.1853   -1.9550   17.2042 C   0  0  0  0  0  0  0  0  0  0  0  0
    8.7840   -2.1217   19.4663 C   0  0  0  0  0  0  0  0  0  0  0  0
    9.0977   -3.2003   20.9344 C   0  0  0  0  0  0  0  0  0  0  0  0
    8.2311   -3.6699   22.5354 C   0  0  0  0  0  0  0  0  0  0  0  0
    7.3261   -5.0169   22.5487 C   0  0  0  0  0  0  0  0  0  0  0  0
    6.2853   -6.4845   23.5208 C   0  0  0  0  0  0  0  0  0  0  0  0
    7.0827   -7.0927   24.2821 O   0  0  0  0  0  0  0  0  0  0  0  0
    4.4254   -7.1890   23.8564 N   0  0  0  0  0  0  0  0  0  0  0  0
    4.2214   -8.1033   23.1080 C   0  0  0  0  0  0  0  0  0  0  0  0
    3.1419   -8.8529   23.0497 C   0  0  0  0  0  0  0  0  0  0  0  0
    1.4519   -8.3951   22.1649 C   0  0  0  0  0  0  0  0  0  0  0  0
    2.6790  -11.0955   23.3344 C   0  0  0  0  0  0  0  0  0  0  0  0
    1.0335  -12.2589   22.9201 N   0  0  0  0  0  0  0  0  0  0  0  0
    0.7808  -14.3772   22.8786 C   0  0  0  0  0  0  0  0  0  0  0  0
    1.7589  -14.8728   23.3049 O   0  0  0  0  0  0  0  0  0  0  0  0
   -0.4134  -15.9280   22.0376 C   0  0  0  0  0  0  0  0  0  0  0  0
   -0.6436  -18.0741   21.9767 C   0  0  0  0  0  0  0  0  0  0  0  0
   -1.2070  -19.7067   23.1609 C   0  0  0  0  0  0  0  0  0  0  0  0
   -2.3208  -20.7154   23.4013 C   0  0  0  0  0  0  0  0  0  0  0  0
   -2.3717  -22.0812   23.7511 N   0  0  0  0  0  0  0  0  0  0  0  0
   -1.2362  -22.7347   24.0097 C   0  0  0  0  0  0  0  0  0  0  0  0
   -0.0126  -22.2192   23.9924 N   0  0  0  0  0  0  0  0  0  0  0  0
    0.0288  -20.8878   23.6290 C   0  0  0  0  0  0  0  0  0  0  0  0
    8.1677   -4.1592   20.5728 S   0  0  0  0  0  0  0  0  0  0  0  0
   10.1525   -1.4588   16.7834 H   0  0  0  0  0  0  0  0  0  0  0  0
   10.1808   -2.5899   16.7351 H   0  0  0  0  0  0  0  0  0  0  0  0
    8.5157   -1.6984   16.2651 H   0  0  0  0  0  0  0  0  0  0  0  0
   10.1789   -3.5579   21.0894 H   0  0  0  0  0  0  0  0  0  0  0  0
    8.8182   -3.5307   23.4447 H   0  0  0  0  0  0  0  0  0  0  0  0
    4.9532   -8.6405   24.0977 H   0  0  0  0  0  0  0  0  0  0  0  0
    4.8062   -7.6348   22.3756 H   0  0  0  0  0  0  0  0  0  0  0  0
    3.2861   -7.3907   23.7612 H   0  0  0  0  0  0  0  0  0  0  0  0
    4.1272   -9.8378   23.1849 H   0  0  0  0  0  0  0  0  0  0  0  0
    1.2495   -7.5247   21.5251 H   0  0  0  0  0  0  0  0  0  0  0  0
    0.7046   -8.1765   22.9551 H   0  0  0  0  0  0  0  0  0  0  0  0
    1.1126   -9.2156   21.5072 H   0  0  0  0  0  0  0  0  0  0  0  0
    3.4181  -11.6960   22.7451 H   0  0  0  0  0  0  0  0  0  0  0  0
    2.5153  -11.6121   24.2681 H   0  0  0  0  0  0  0  0  0  0  0  0
    0.1638  -11.8313   22.6378 H   0  0  0  0  0  0  0  0  0  0  0  0
   -1.0483  -15.8528   21.0731 H   0  0  0  0  0  0  0  0  0  0  0  0
    0.3882  -16.1298   21.2813 H   0  0  0  0  0  0  0  0  0  0  0  0
   -1.3026  -18.1278   21.0954 H   0  0  0  0  0  0  0  0  0  0  0  0
    0.3343  -18.2944   21.6170 H   0  0  0  0  0  0  0  0  0  0  0  0
   -3.3307  -20.4856   23.7347 H   0  0  0  0  0  0  0  0  0  0  0  0
   -1.3240  -23.7830   24.2694 H   0  0  0  0  0  0  0  0  0  0  0  0
    1.0733  -20.5309   23.6583 H   0  0  0  0  0  0  0  0  0  0  0  0
  1  2  1  0
  2  3  2  0
  3  4  1  0
  4  5  2  0
  5  6  1  0
  6  7  2  0
  6  8  1  0
  8  9  1  0
  8 10  1  0
 10 11  1  0
 10 12  1  0
 12 13  1  0
 13 14  1  0
 14 15  2  0
 14 16  1  0
 16 17  1  0
 17 18  1  0
 18 19  2  0
 19 20  1  0
 20 21  2  0
 21 22  1  0
 22 23  2  0
  5 24  1  0
 24  2  1  0
 23 18  1  0
  1 25  1  0
  1 26  1  0
  1 27  1  0
  3 28  1  0
  4 29  1  0
  9 30  1  0
  9 31  1  0
  9 32  1  0
 10 33  1  0
 11 34  1  0
 11 35  1  0
 11 36  1  0
 12 37  1  0
 12 38  1  0
 13 39  1  0
 16 40  1  0
 16 41  1  0
 17 42  1  0
 17 43  1  0
 19 44  1  0
 21 45  1  0
 23 46  1  0
M  END
>  <Energy>  (775) 
3211.3876689139888

>  <compound_id>  (775) 
17526

>  <target_id>  (775) 
1

>  <reference_id>  (775) 
66

>  <inspiration_ids>  (775) 
[66, 54]

>  <energy_score>  (775) 
3173.312892264573

>  <distance_score>  (775) 
10.854173332295131

>  <path>  (775) 
/opt/xchem-fragalysis-2/maxwin/BulkDock/SCRATCH/511014/C17526-P66/C17526-P66.minimised.mol

>  <scratch_subdir>  (775) 
/opt/xchem-fragalysis-2/maxwin/BulkDock/SCRATCH/511014/C17526-P66

>  <fragmenstein_runtime>  (775) 
29.024900913238525

>  <fragmenstein_outcome>  (775) 
too moved

>  <fragmenstein_mode>  (775) 
expansion

>  <fragmenstein_error>  (775) 


$$$$
C17526-P54
     RDKit          3D

 46 47  0  0  0  0  0  0  0  0999 V2000
    7.2255   -5.3729   21.2959 C   0  0  0  0  0  0  0  0  0  0  0  0
    5.9557   -5.5715   20.5425 C   0  0  0  0  0  0  0  0  0  0  0  0
    5.3332   -4.8613   19.5520 C   0  0  0  0  0  0  0  0  0  0  0  0
    3.9336   -5.3653   19.6060 C   0  0  0  0  0  0  0  0  0  0  0  0
    3.2596   -6.8281   19.4212 C   0  0  0  0  0  0  0  0  0  0  0  0
    3.4629   -8.7778   19.8123 C   0  0  0  0  0  0  0  0  0  0  0  0
    4.6337   -8.9802   20.3150 O   0  0  0  0  0  0  0  0  0  0  0  0
    2.3984  -10.4976   19.9215 N   0  0  0  0  0  0  0  0  0  0  0  0
    2.5893  -11.3614   18.7147 C   0  0  0  0  0  0  0  0  0  0  0  0
    1.0924  -11.2993   21.4302 C   0  0  0  0  0  0  0  0  0  0  0  0
    0.9892  -10.9770   23.0626 C   0  0  0  0  0  0  0  0  0  0  0  0
   -0.7030  -12.5916   21.9662 C   0  0  0  0  0  0  0  0  0  0  0  0
   -2.3442  -13.8464   22.2943 N   0  0  0  0  0  0  0  0  0  0  0  0
   -4.2725  -13.6137   22.0579 C   0  0  0  0  0  0  0  0  0  0  0  0
   -4.4798  -12.5558   21.7749 O   0  0  0  0  0  0  0  0  0  0  0  0
   -6.0149  -14.5773   21.9361 C   0  0  0  0  0  0  0  0  0  0  0  0
   -7.3551  -14.9061   22.7119 C   0  0  0  0  0  0  0  0  0  0  0  0
   -8.0680  -16.1100   22.1459 C   0  0  0  0  0  0  0  0  0  0  0  0
   -7.5361  -17.3820   22.0543 C   0  0  0  0  0  0  0  0  0  0  0  0
   -8.1806  -18.4494   21.5503 N   0  0  0  0  0  0  0  0  0  0  0  0
   -9.4113  -18.2164   21.0883 C   0  0  0  0  0  0  0  0  0  0  0  0
  -10.0185  -17.0168   21.0800 N   0  0  0  0  0  0  0  0  0  0  0  0
   -9.3389  -15.9978   21.6286 C   0  0  0  0  0  0  0  0  0  0  0  0
    4.6513   -6.4529   21.2825 S   0  0  0  0  0  0  0  0  0  0  0  0
    7.0321   -5.1583   22.3526 H   0  0  0  0  0  0  0  0  0  0  0  0
    7.8491   -6.2709   21.2423 H   0  0  0  0  0  0  0  0  0  0  0  0
    7.7941   -4.5301   20.8957 H   0  0  0  0  0  0  0  0  0  0  0  0
    5.6463   -3.8459   19.3431 H   0  0  0  0  0  0  0  0  0  0  0  0
    3.2183   -4.7303   20.0178 H   0  0  0  0  0  0  0  0  0  0  0  0
    3.5621  -10.8885   18.5558 H   0  0  0  0  0  0  0  0  0  0  0  0
    2.5331  -12.3847   19.0243 H   0  0  0  0  0  0  0  0  0  0  0  0
    2.9831  -11.5618   17.6840 H   0  0  0  0  0  0  0  0  0  0  0  0
    1.8280  -12.1194   21.3537 H   0  0  0  0  0  0  0  0  0  0  0  0
    1.7259  -11.4338   23.7526 H   0  0  0  0  0  0  0  0  0  0  0  0
    0.2896  -11.5344   23.5705 H   0  0  0  0  0  0  0  0  0  0  0  0
    0.5479  -10.0059   23.3441 H   0  0  0  0  0  0  0  0  0  0  0  0
   -1.3193  -12.1888   22.7987 H   0  0  0  0  0  0  0  0  0  0  0  0
   -0.9879  -12.6950   20.9346 H   0  0  0  0  0  0  0  0  0  0  0  0
   -2.1914  -14.7276   22.6259 H   0  0  0  0  0  0  0  0  0  0  0  0
   -6.0149  -15.1609   20.9666 H   0  0  0  0  0  0  0  0  0  0  0  0
   -6.4883  -13.7118   21.4062 H   0  0  0  0  0  0  0  0  0  0  0  0
   -8.0267  -14.0441   22.5592 H   0  0  0  0  0  0  0  0  0  0  0  0
   -7.3273  -14.9441   23.7985 H   0  0  0  0  0  0  0  0  0  0  0  0
   -6.5342  -17.6129   22.3880 H   0  0  0  0  0  0  0  0  0  0  0  0
   -9.9654  -19.0585   20.6875 H   0  0  0  0  0  0  0  0  0  0  0  0
   -9.8654  -15.0466   21.6115 H   0  0  0  0  0  0  0  0  0  0  0  0
  1  2  1  0
  2  3  2  0
  3  4  1  0
  4  5  2  0
  5  6  1  0
  6  7  2  0
  6  8  1  0
  8  9  1  0
  8 10  1  0
 10 11  1  0
 10 12  1  0
 12 13  1  0
 13 14  1  0
 14 15  2  0
 14 16  1  0
 16 17  1  0
 17 18  1  0
 18 19  2  0
 19 20  1  0
 20 21  2  0
 21 22  1  0
 22 23  2  0
  5 24  1  0
 24  2  1  0
 23 18  1  0
  1 25  1  0
  1 26  1  0
  1 27  1  0
  3 28  1  0
  4 29  1  0
  9 30  1  0
  9 31  1  0
  9 32  1  0
 10 33  1  0
 11 34  1  0
 11 35  1  0
 11 36  1  0
 12 37  1  0
 12 38  1  0
 13 39  1  0
 16 40  1  0
 16 41  1  0
 17 42  1  0
 17 43  1  0
 19 44  1  0
 21 45  1  0
 23 46  1  0
M  END
>  <Energy>  (776) 
1392.1344088310668

>  <compound_id>  (776) 
17526

>  <target_id>  (776) 
1

>  <reference_id>  (776) 
54

>  <inspiration_ids>  (776) 
[66, 54]

>  <energy_score>  (776) 
1354.059632181621

>  <distance_score>  (776) 
11.228211565262386

>  <path>  (776) 
/opt/xchem-fragalysis-2/maxwin/BulkDock/SCRATCH/511014/C17526-P54/C17526-P54.minimised.mol

>  <scratch_subdir>  (776) 
/opt/xchem-fragalysis-2/maxwin/BulkDock/SCRATCH/511014/C17526-P54

>  <fragmenstein_runtime>  (776) 
23.84689426422119

>  <fragmenstein_outcome>  (776) 
too moved

>  <fragmenstein_mode>  (776) 
expansion

>  <fragmenstein_error>  (776) 


$$$$
C17527-P66
     RDKit          3D

 43 44  0  0  0  0  0  0  0  0999 V2000
    3.2749  -15.6533   32.1917 C   0  0  0  0  0  0  0  0  0  0  0  0
    3.3975  -14.6955   30.9948 C   0  0  0  0  0  0  0  0  0  0  0  0
    1.9910  -14.4093   30.5302 N   0  0  0  0  0  0  0  0  0  0  0  0
    2.7647  -13.4430   29.5320 C   0  0  0  0  0  0  0  0  0  0  0  0
    3.1755  -11.9957   30.0710 C   0  0  0  0  0  0  0  0  0  0  0  0
    4.1725  -11.2268   29.2890 N   0  0  0  0  0  0  0  0  0  0  0  0
    5.5538  -11.5270   28.9482 C   0  0  0  0  0  0  0  0  0  0  0  0
    6.2076  -12.5076   29.1476 O   0  0  0  0  0  0  0  0  0  0  0  0
    6.1926  -10.4119   28.1356 C   0  0  0  0  0  0  0  0  0  0  0  0
    5.9320   -9.0475   28.0265 C   0  0  0  0  0  0  0  0  0  0  0  0
    6.7576   -8.3641   27.0665 C   0  0  0  0  0  0  0  0  0  0  0  0
    7.6799   -9.2024   26.4848 C   0  0  0  0  0  0  0  0  0  0  0  0
    8.7393   -8.8584   25.4974 C   0  0  0  0  0  0  0  0  0  0  0  0
    7.5258  -10.8001   27.0778 S   0  0  0  0  0  0  0  0  0  0  0  0
    1.0459  -15.2443   29.7963 C   0  0  0  0  0  0  0  0  0  0  0  0
    1.1865  -16.3340   29.3018 O   0  0  0  0  0  0  0  0  0  0  0  0
   -0.3696  -14.6061   29.7771 C   0  0  0  0  0  0  0  0  0  0  0  0
   -1.5963  -15.5307   29.6526 C   0  0  0  0  0  0  0  0  0  0  0  0
   -1.7095  -16.8237   30.1409 C   0  0  0  0  0  0  0  0  0  0  0  0
   -2.8539  -17.5602   30.1252 N   0  0  0  0  0  0  0  0  0  0  0  0
   -3.9331  -16.9542   29.6076 C   0  0  0  0  0  0  0  0  0  0  0  0
   -3.9551  -15.7262   29.0764 N   0  0  0  0  0  0  0  0  0  0  0  0
   -2.7853  -15.0503   29.1188 C   0  0  0  0  0  0  0  0  0  0  0  0
    4.2673  -15.9139   32.5730 H   0  0  0  0  0  0  0  0  0  0  0  0
    2.7644  -16.5794   31.9067 H   0  0  0  0  0  0  0  0  0  0  0  0
    2.7036  -15.1900   33.0033 H   0  0  0  0  0  0  0  0  0  0  0  0
    3.9632  -15.2779   30.2518 H   0  0  0  0  0  0  0  0  0  0  0  0
    3.9668  -13.8540   31.3923 H   0  0  0  0  0  0  0  0  0  0  0  0
    2.0093  -13.2271   28.7607 H   0  0  0  0  0  0  0  0  0  0  0  0
    3.5513  -13.9291   28.9312 H   0  0  0  0  0  0  0  0  0  0  0  0
    2.2687  -11.3798   30.0961 H   0  0  0  0  0  0  0  0  0  0  0  0
    3.5565  -12.0112   31.0942 H   0  0  0  0  0  0  0  0  0  0  0  0
    3.9726  -10.2682   29.0413 H   0  0  0  0  0  0  0  0  0  0  0  0
    5.1828   -8.5334   28.6152 H   0  0  0  0  0  0  0  0  0  0  0  0
    6.6923   -7.3044   26.8479 H   0  0  0  0  0  0  0  0  0  0  0  0
    8.3207   -8.2592   24.6832 H   0  0  0  0  0  0  0  0  0  0  0  0
    9.2047   -9.7466   25.0599 H   0  0  0  0  0  0  0  0  0  0  0  0
    9.5261   -8.2704   25.9816 H   0  0  0  0  0  0  0  0  0  0  0  0
   -0.3757  -13.9076   28.9310 H   0  0  0  0  0  0  0  0  0  0  0  0
   -0.4989  -14.0244   30.6980 H   0  0  0  0  0  0  0  0  0  0  0  0
   -0.8616  -17.3293   30.5978 H   0  0  0  0  0  0  0  0  0  0  0  0
   -4.8739  -17.4857   29.6319 H   0  0  0  0  0  0  0  0  0  0  0  0
   -2.8434  -14.0448   28.7084 H   0  0  0  0  0  0  0  0  0  0  0  0
  1  2  1  0
  2  3  1  0
  3  4  1  0
  4  5  1  0
  5  6  1  0
  6  7  1  0
  7  8  2  0
  7  9  1  0
  9 10  2  0
 10 11  1  0
 11 12  2  0
 12 13  1  0
 12 14  1  0
  3 15  1  0
 15 16  2  0
 15 17  1  0
 17 18  1  0
 18 19  2  0
 19 20  1  0
 20 21  2  0
 21 22  1  0
 22 23  2  0
 14  9  1  0
 23 18  1  0
  1 24  1  0
  1 25  1  0
  1 26  1  0
  2 27  1  0
  2 28  1  0
  4 29  1  0
  4 30  1  0
  5 31  1  0
  5 32  1  0
  6 33  1  0
 10 34  1  0
 11 35  1  0
 13 36  1  0
 13 37  1  0
 13 38  1  0
 17 39  1  0
 17 40  1  0
 19 41  1  0
 21 42  1  0
 23 43  1  0
M  END
>  <Energy>  (777) 
90.908175676606561

>  <compound_id>  (777) 
17527

>  <target_id>  (777) 
1

>  <reference_id>  (777) 
66

>  <inspiration_ids>  (777) 
[66, 54]

>  <energy_score>  (777) 
50.998319010709

>  <distance_score>  (777) 
14.46586106034623

>  <path>  (777) 
/opt/xchem-fragalysis-2/maxwin/BulkDock/SCRATCH/511014/C17527-P66/C17527-P66.minimised.mol

>  <scratch_subdir>  (777) 
/opt/xchem-fragalysis-2/maxwin/BulkDock/SCRATCH/511014/C17527-P66

>  <fragmenstein_runtime>  (777) 
39.08254861831665

>  <fragmenstein_outcome>  (777) 
too moved

>  <fragmenstein_mode>  (777) 
expansion

>  <fragmenstein_error>  (777) 


$$$$
C17527-P54
     RDKit          3D

 43 44  0  0  0  0  0  0  0  0999 V2000
   -4.3559  -13.5310   17.4228 C   0  0  0  0  0  0  0  0  0  0  0  0
   -3.3510  -14.5338   16.8355 C   0  0  0  0  0  0  0  0  0  0  0  0
   -3.4836  -15.9030   17.2938 N   0  0  0  0  0  0  0  0  0  0  0  0
   -2.1268  -15.3990   18.3641 C   0  0  0  0  0  0  0  0  0  0  0  0
   -0.1615  -15.2281   18.7513 C   0  0  0  0  0  0  0  0  0  0  0  0
    1.3053  -14.0115   18.1882 N   0  0  0  0  0  0  0  0  0  0  0  0
    2.3708  -12.8958   19.1372 C   0  0  0  0  0  0  0  0  0  0  0  0
    2.4022  -12.7758   20.3934 O   0  0  0  0  0  0  0  0  0  0  0  0
    3.3339  -11.9295   17.8673 C   0  0  0  0  0  0  0  0  0  0  0  0
    4.0072  -10.8259   17.3774 C   0  0  0  0  0  0  0  0  0  0  0  0
    3.7303  -10.0486   18.4944 C   0  0  0  0  0  0  0  0  0  0  0  0
    4.8734   -9.3681   18.6059 C   0  0  0  0  0  0  0  0  0  0  0  0
    5.3576   -8.6349   19.8849 C   0  0  0  0  0  0  0  0  0  0  0  0
    5.4116  -11.2619   17.8621 S   0  0  0  0  0  0  0  0  0  0  0  0
   -4.5549  -16.5465   18.0815 C   0  0  0  0  0  0  0  0  0  0  0  0
   -5.5290  -16.0684   18.6110 O   0  0  0  0  0  0  0  0  0  0  0  0
   -4.5120  -18.1132   18.1676 C   0  0  0  0  0  0  0  0  0  0  0  0
   -5.6414  -18.9067   18.9361 C   0  0  0  0  0  0  0  0  0  0  0  0
   -6.7844  -18.4038   19.5546 C   0  0  0  0  0  0  0  0  0  0  0  0
   -7.6777  -19.1217   20.3007 N   0  0  0  0  0  0  0  0  0  0  0  0
   -7.4134  -20.4258   20.4299 C   0  0  0  0  0  0  0  0  0  0  0  0
   -6.3826  -21.0590   19.8600 N   0  0  0  0  0  0  0  0  0  0  0  0
   -5.5364  -20.2798   19.1317 C   0  0  0  0  0  0  0  0  0  0  0  0
   -4.3087  -13.4644   18.5104 H   0  0  0  0  0  0  0  0  0  0  0  0
   -5.3812  -13.8105   17.1563 H   0  0  0  0  0  0  0  0  0  0  0  0
   -4.1729  -12.5337   17.0094 H   0  0  0  0  0  0  0  0  0  0  0  0
   -3.7289  -14.6336   15.8044 H   0  0  0  0  0  0  0  0  0  0  0  0
   -2.4222  -14.1138   16.6364 H   0  0  0  0  0  0  0  0  0  0  0  0
   -2.2002  -16.3340   18.9354 H   0  0  0  0  0  0  0  0  0  0  0  0
   -2.6098  -14.5563   18.8585 H   0  0  0  0  0  0  0  0  0  0  0  0
   -0.3269  -15.0428   19.7892 H   0  0  0  0  0  0  0  0  0  0  0  0
    0.0147  -16.2531   18.5175 H   0  0  0  0  0  0  0  0  0  0  0  0
    1.5587  -13.9567   17.1949 H   0  0  0  0  0  0  0  0  0  0  0  0
    4.3285  -10.6358   16.2883 H   0  0  0  0  0  0  0  0  0  0  0  0
    3.0190  -10.1713   19.3130 H   0  0  0  0  0  0  0  0  0  0  0  0
    5.5692   -9.2933   20.7294 H   0  0  0  0  0  0  0  0  0  0  0  0
    4.5547   -7.9328   20.1037 H   0  0  0  0  0  0  0  0  0  0  0  0
    6.1814   -7.9343   19.8847 H   0  0  0  0  0  0  0  0  0  0  0  0
   -4.6551  -18.4212   17.1268 H   0  0  0  0  0  0  0  0  0  0  0  0
   -3.5232  -18.4275   18.4968 H   0  0  0  0  0  0  0  0  0  0  0  0
   -7.0477  -17.3527   19.5131 H   0  0  0  0  0  0  0  0  0  0  0  0
   -8.0967  -21.0214   21.0247 H   0  0  0  0  0  0  0  0  0  0  0  0
   -4.7146  -20.8408   18.7027 H   0  0  0  0  0  0  0  0  0  0  0  0
  1  2  1  0
  2  3  1  0
  3  4  1  0
  4  5  1  0
  5  6  1  0
  6  7  1  0
  7  8  2  0
  7  9  1  0
  9 10  2  0
 10 11  1  0
 11 12  2  0
 12 13  1  0
 12 14  1  0
  3 15  1  0
 15 16  2  0
 15 17  1  0
 17 18  1  0
 18 19  2  0
 19 20  1  0
 20 21  2  0
 21 22  1  0
 22 23  2  0
 14  9  1  0
 23 18  1  0
  1 24  1  0
  1 25  1  0
  1 26  1  0
  2 27  1  0
  2 28  1  0
  4 29  1  0
  4 30  1  0
  5 31  1  0
  5 32  1  0
  6 33  1  0
 10 34  1  0
 11 35  1  0
 13 36  1  0
 13 37  1  0
 13 38  1  0
 17 39  1  0
 17 40  1  0
 19 41  1  0
 21 42  1  0
 23 43  1  0
M  END
>  <Energy>  (778) 
646.03208668055845

>  <compound_id>  (778) 
17527

>  <target_id>  (778) 
1

>  <reference_id>  (778) 
54

>  <inspiration_ids>  (778) 
[66, 54]

>  <energy_score>  (778) 
606.1222300146608

>  <distance_score>  (778) 
13.143379817058364

>  <path>  (778) 
/opt/xchem-fragalysis-2/maxwin/BulkDock/SCRATCH/511014/C17527-P54/C17527-P54.minimised.mol

>  <scratch_subdir>  (778) 
/opt/xchem-fragalysis-2/maxwin/BulkDock/SCRATCH/511014/C17527-P54

>  <fragmenstein_runtime>  (778) 
33.139240741729736

>  <fragmenstein_outcome>  (778) 
too moved

>  <fragmenstein_mode>  (778) 
expansion

>  <fragmenstein_error>  (778) 


$$$$
C17528-P66
     RDKit          3D

 43 44  0  0  0  0  0  0  0  0999 V2000
   14.0541   -1.9912   15.3925 C   0  0  0  0  0  0  0  0  0  0  0  0
   13.0512   -1.0340   14.8496 C   0  0  0  0  0  0  0  0  0  0  0  0
   11.7163   -1.2385   14.5637 C   0  0  0  0  0  0  0  0  0  0  0  0
   11.0328   -0.0336   14.1485 C   0  0  0  0  0  0  0  0  0  0  0  0
    9.5887    0.1287   13.7822 C   0  0  0  0  0  0  0  0  0  0  0  0
    9.3447    0.9014   12.9050 O   0  0  0  0  0  0  0  0  0  0  0  0
    8.7129   -0.7870   14.5239 N   0  0  0  0  0  0  0  0  0  0  0  0
    7.2305   -1.1257   14.3505 C   0  0  0  0  0  0  0  0  0  0  0  0
    7.3099   -2.5448   14.5597 C   0  0  0  0  0  0  0  0  0  0  0  0
    5.9567   -1.1803   13.0910 C   0  0  0  0  0  0  0  0  0  0  0  0
    4.6335   -2.2256   12.8747 N   0  0  0  0  0  0  0  0  0  0  0  0
    4.2638   -1.1900   11.8684 C   0  0  0  0  0  0  0  0  0  0  0  0
    3.4655   -2.5226   13.7707 C   0  0  0  0  0  0  0  0  0  0  0  0
    3.1401   -2.0234   14.8230 O   0  0  0  0  0  0  0  0  0  0  0  0
    2.4804   -3.6073   13.1213 C   0  0  0  0  0  0  0  0  0  0  0  0
    1.7770   -4.7132   13.9606 C   0  0  0  0  0  0  0  0  0  0  0  0
    2.3911   -5.3933   14.9792 C   0  0  0  0  0  0  0  0  0  0  0  0
    2.0081   -6.5921   15.4463 N   0  0  0  0  0  0  0  0  0  0  0  0
    0.8068   -7.0017   15.0661 C   0  0  0  0  0  0  0  0  0  0  0  0
    0.0052   -6.3910   14.1942 N   0  0  0  0  0  0  0  0  0  0  0  0
    0.5515   -5.2897   13.6178 C   0  0  0  0  0  0  0  0  0  0  0  0
   11.9394    1.0067   14.0452 C   0  0  0  0  0  0  0  0  0  0  0  0
   13.5212    0.5721   14.5148 S   0  0  0  0  0  0  0  0  0  0  0  0
   14.8098   -2.2298   14.6378 H   0  0  0  0  0  0  0  0  0  0  0  0
   13.5715   -2.9206   15.7109 H   0  0  0  0  0  0  0  0  0  0  0  0
   14.5605   -1.5717   16.2684 H   0  0  0  0  0  0  0  0  0  0  0  0
   11.2373   -2.2056   14.6572 H   0  0  0  0  0  0  0  0  0  0  0  0
    9.2742   -1.3535   15.1409 H   0  0  0  0  0  0  0  0  0  0  0  0
    6.7939   -0.7883   15.3020 H   0  0  0  0  0  0  0  0  0  0  0  0
    6.3084   -2.9526   14.6226 H   0  0  0  0  0  0  0  0  0  0  0  0
    7.8651   -2.9018   13.7327 H   0  0  0  0  0  0  0  0  0  0  0  0
    7.9009   -2.7938   15.4060 H   0  0  0  0  0  0  0  0  0  0  0  0
    5.3351   -1.0124   13.9675 H   0  0  0  0  0  0  0  0  0  0  0  0
    6.5572   -1.7629   12.4068 H   0  0  0  0  0  0  0  0  0  0  0  0
    4.0005   -0.2258   12.3239 H   0  0  0  0  0  0  0  0  0  0  0  0
    4.9921   -1.1032   11.0513 H   0  0  0  0  0  0  0  0  0  0  0  0
    3.3389   -1.5374   11.3898 H   0  0  0  0  0  0  0  0  0  0  0  0
    3.0181   -4.1172   12.3121 H   0  0  0  0  0  0  0  0  0  0  0  0
    1.6887   -3.0113   12.6476 H   0  0  0  0  0  0  0  0  0  0  0  0
    3.2518   -4.9800   15.4819 H   0  0  0  0  0  0  0  0  0  0  0  0
    0.4413   -7.8538   15.6084 H   0  0  0  0  0  0  0  0  0  0  0  0
   -0.0473   -4.8678   12.8133 H   0  0  0  0  0  0  0  0  0  0  0  0
   11.7345    2.0169   13.7160 H   0  0  0  0  0  0  0  0  0  0  0  0
  1  2  1  0
  2  3  2  0
  3  4  1  0
  4  5  1  0
  5  6  2  0
  5  7  1  0
  7  8  1  0
  8  9  1  0
  8 10  1  0
 10 11  1  0
 11 12  1  0
 11 13  1  0
 13 14  2  0
 13 15  1  0
 15 16  1  0
 16 17  2  0
 17 18  1  0
 18 19  2  0
 19 20  1  0
 20 21  2  0
  4 22  2  0
 22 23  1  0
 23  2  1  0
 21 16  1  0
  1 24  1  0
  1 25  1  0
  1 26  1  0
  3 27  1  0
  7 28  1  0
  8 29  1  0
  9 30  1  0
  9 31  1  0
  9 32  1  0
 10 33  1  0
 10 34  1  0
 12 35  1  0
 12 36  1  0
 12 37  1  0
 15 38  1  0
 15 39  1  0
 17 40  1  0
 19 41  1  0
 21 42  1  0
 22 43  1  0
M  END
>  <Energy>  (779) 
213.20770043646542

>  <compound_id>  (779) 
17528

>  <target_id>  (779) 
1

>  <reference_id>  (779) 
66

>  <inspiration_ids>  (779) 
[66, 54]

>  <energy_score>  (779) 
178.946699908702

>  <distance_score>  (779) 
19.23495203335522

>  <path>  (779) 
/opt/xchem-fragalysis-2/maxwin/BulkDock/SCRATCH/511014/C17528-P66/C17528-P66.minimised.mol

>  <scratch_subdir>  (779) 
/opt/xchem-fragalysis-2/maxwin/BulkDock/SCRATCH/511014/C17528-P66

>  <fragmenstein_runtime>  (779) 
33.59596276283264

>  <fragmenstein_outcome>  (779) 
too moved

>  <fragmenstein_mode>  (779) 
expansion

>  <fragmenstein_error>  (779) 


$$$$
C17528-P54
     RDKit          3D

 43 44  0  0  0  0  0  0  0  0999 V2000
    6.0599   -7.6718   21.5331 C   0  0  0  0  0  0  0  0  0  0  0  0
    5.3384   -8.6892   20.6646 C   0  0  0  0  0  0  0  0  0  0  0  0
    4.1399   -8.7857   19.8840 C   0  0  0  0  0  0  0  0  0  0  0  0
    3.0687   -9.8092   19.3783 C   0  0  0  0  0  0  0  0  0  0  0  0
    1.8106  -10.8932   20.3327 C   0  0  0  0  0  0  0  0  0  0  0  0
    2.4008  -11.6977   20.9473 O   0  0  0  0  0  0  0  0  0  0  0  0
   -0.1517  -11.1566   20.4002 N   0  0  0  0  0  0  0  0  0  0  0  0
   -1.3107  -12.7241   21.2336 C   0  0  0  0  0  0  0  0  0  0  0  0
   -0.0541  -12.6195   22.1422 C   0  0  0  0  0  0  0  0  0  0  0  0
   -3.1378  -14.0395   21.4832 C   0  0  0  0  0  0  0  0  0  0  0  0
   -4.7417  -15.1595   20.5028 N   0  0  0  0  0  0  0  0  0  0  0  0
   -3.3922  -15.7492   19.3217 C   0  0  0  0  0  0  0  0  0  0  0  0
   -5.7870  -16.7204   21.0875 C   0  0  0  0  0  0  0  0  0  0  0  0
   -5.6705  -17.4614   22.0809 O   0  0  0  0  0  0  0  0  0  0  0  0
   -6.9466  -17.2207   20.0403 C   0  0  0  0  0  0  0  0  0  0  0  0
   -7.6675  -18.4811   20.5538 C   0  0  0  0  0  0  0  0  0  0  0  0
   -9.0200  -18.4949   20.8361 C   0  0  0  0  0  0  0  0  0  0  0  0
   -9.7061  -19.5830   21.2429 N   0  0  0  0  0  0  0  0  0  0  0  0
   -8.9930  -20.7067   21.3997 C   0  0  0  0  0  0  0  0  0  0  0  0
   -7.6759  -20.8211   21.1943 N   0  0  0  0  0  0  0  0  0  0  0  0
   -7.0486  -19.7017   20.7692 C   0  0  0  0  0  0  0  0  0  0  0  0
    4.4067  -10.0043   18.3944 C   0  0  0  0  0  0  0  0  0  0  0  0
    6.1753   -9.7130   19.8390 S   0  0  0  0  0  0  0  0  0  0  0  0
    7.0070   -7.3514   21.0848 H   0  0  0  0  0  0  0  0  0  0  0  0
    5.4614   -6.7671   21.6909 H   0  0  0  0  0  0  0  0  0  0  0  0
    6.2877   -8.1102   22.5118 H   0  0  0  0  0  0  0  0  0  0  0  0
    3.5710   -7.9187   19.9659 H   0  0  0  0  0  0  0  0  0  0  0  0
   -0.5948  -10.3708   19.9179 H   0  0  0  0  0  0  0  0  0  0  0  0
   -1.0301  -13.3652   20.3873 H   0  0  0  0  0  0  0  0  0  0  0  0
    0.0673  -11.9984   23.0339 H   0  0  0  0  0  0  0  0  0  0  0  0
    0.7627  -13.0504   21.5001 H   0  0  0  0  0  0  0  0  0  0  0  0
    0.6890  -11.8058   21.9553 H   0  0  0  0  0  0  0  0  0  0  0  0
   -3.9832  -13.5140   21.9379 H   0  0  0  0  0  0  0  0  0  0  0  0
   -3.0036  -14.3426   22.5578 H   0  0  0  0  0  0  0  0  0  0  0  0
   -3.9523  -16.3922   18.6256 H   0  0  0  0  0  0  0  0  0  0  0  0
   -2.6818  -16.5876   19.4627 H   0  0  0  0  0  0  0  0  0  0  0  0
   -3.0320  -14.9242   18.6906 H   0  0  0  0  0  0  0  0  0  0  0  0
   -7.7381  -16.5006   19.8522 H   0  0  0  0  0  0  0  0  0  0  0  0
   -6.4590  -17.4682   19.0918 H   0  0  0  0  0  0  0  0  0  0  0  0
   -9.6310  -17.6051   20.7223 H   0  0  0  0  0  0  0  0  0  0  0  0
   -9.5279  -21.5822   21.7363 H   0  0  0  0  0  0  0  0  0  0  0  0
   -5.9857  -19.8343   20.5940 H   0  0  0  0  0  0  0  0  0  0  0  0
    4.6718  -10.8530   17.7631 H   0  0  0  0  0  0  0  0  0  0  0  0
  1  2  1  0
  2  3  2  0
  3  4  1  0
  4  5  1  0
  5  6  2  0
  5  7  1  0
  7  8  1  0
  8  9  1  0
  8 10  1  0
 10 11  1  0
 11 12  1  0
 11 13  1  0
 13 14  2  0
 13 15  1  0
 15 16  1  0
 16 17  2  0
 17 18  1  0
 18 19  2  0
 19 20  1  0
 20 21  2  0
  4 22  2  0
 22 23  1  0
 23  2  1  0
 21 16  1  0
  1 24  1  0
  1 25  1  0
  1 26  1  0
  3 27  1  0
  7 28  1  0
  8 29  1  0
  9 30  1  0
  9 31  1  0
  9 32  1  0
 10 33  1  0
 10 34  1  0
 12 35  1  0
 12 36  1  0
 12 37  1  0
 15 38  1  0
 15 39  1  0
 17 40  1  0
 19 41  1  0
 21 42  1  0
 22 43  1  0
M  END
>  <Energy>  (780) 
1257.4311978936535

>  <compound_id>  (780) 
17528

>  <target_id>  (780) 
1

>  <reference_id>  (780) 
54

>  <inspiration_ids>  (780) 
[66, 54]

>  <energy_score>  (780) 
1223.1701973658965

>  <distance_score>  (780) 
11.192207935967978

>  <path>  (780) 
/opt/xchem-fragalysis-2/maxwin/BulkDock/SCRATCH/511014/C17528-P54/C17528-P54.minimised.mol

>  <scratch_subdir>  (780) 
/opt/xchem-fragalysis-2/maxwin/BulkDock/SCRATCH/511014/C17528-P54

>  <fragmenstein_runtime>  (780) 
20.753979682922363

>  <fragmenstein_outcome>  (780) 
too moved

>  <fragmenstein_mode>  (780) 
expansion

>  <fragmenstein_error>  (780) 


$$$$
C17531-P66
     RDKit          3D

 43 44  0  0  0  0  0  0  0  0999 V2000
    9.3222   -0.0240   13.9630 C   0  0  0  0  0  0  0  0  0  0  0  0
    9.3967   -1.2997   14.8432 C   0  0  0  0  0  0  0  0  0  0  0  0
    8.4522   -1.7997   15.7540 C   0  0  0  0  0  0  0  0  0  0  0  0
    9.0667   -2.2204   17.4757 C   0  0  0  0  0  0  0  0  0  0  0  0
    8.3515   -3.9030   19.0192 C   0  0  0  0  0  0  0  0  0  0  0  0
    8.8389   -4.1078   20.1505 O   0  0  0  0  0  0  0  0  0  0  0  0
    6.8595   -5.2390   18.2183 N   0  0  0  0  0  0  0  0  0  0  0  0
    6.0234   -7.1016   18.8061 C   0  0  0  0  0  0  0  0  0  0  0  0
    5.1996   -9.2336   18.8279 C   0  0  0  0  0  0  0  0  0  0  0  0
    7.0262  -10.2472   18.8691 C   0  0  0  0  0  0  0  0  0  0  0  0
    5.4964  -11.1239   19.8913 C   0  0  0  0  0  0  0  0  0  0  0  0
    4.5092  -12.4653   20.8826 N   0  0  0  0  0  0  0  0  0  0  0  0
    3.4490  -12.3365   22.3218 C   0  0  0  0  0  0  0  0  0  0  0  0
    3.1734  -11.2887   22.7868 O   0  0  0  0  0  0  0  0  0  0  0  0
    2.7167  -13.7476   23.4365 C   0  0  0  0  0  0  0  0  0  0  0  0
    0.8345  -14.1491   23.7705 C   0  0  0  0  0  0  0  0  0  0  0  0
   -0.2590  -14.2879   22.9580 C   0  0  0  0  0  0  0  0  0  0  0  0
   -1.6670  -15.0929   23.5089 N   0  0  0  0  0  0  0  0  0  0  0  0
   -2.2553  -15.2308   24.7121 C   0  0  0  0  0  0  0  0  0  0  0  0
   -1.7443  -14.2690   25.3284 N   0  0  0  0  0  0  0  0  0  0  0  0
   -0.2494  -14.1241   24.5430 C   0  0  0  0  0  0  0  0  0  0  0  0
   10.5840   -2.4922   16.5487 C   0  0  0  0  0  0  0  0  0  0  0  0
   10.9136   -2.0136   14.9818 S   0  0  0  0  0  0  0  0  0  0  0  0
   10.2056    0.1051   13.3215 H   0  0  0  0  0  0  0  0  0  0  0  0
    9.3140    0.9101   14.5228 H   0  0  0  0  0  0  0  0  0  0  0  0
    8.4173   -0.0633   13.3629 H   0  0  0  0  0  0  0  0  0  0  0  0
    7.4172   -1.4974   15.6284 H   0  0  0  0  0  0  0  0  0  0  0  0
    6.6573   -4.9967   17.3314 H   0  0  0  0  0  0  0  0  0  0  0  0
    4.9624   -6.7149   18.5644 H   0  0  0  0  0  0  0  0  0  0  0  0
    5.9898   -7.0454   17.6754 H   0  0  0  0  0  0  0  0  0  0  0  0
    4.6806   -9.4989   17.9442 H   0  0  0  0  0  0  0  0  0  0  0  0
    7.3576  -10.5142   17.8752 H   0  0  0  0  0  0  0  0  0  0  0  0
    7.4042  -10.8636   19.6707 H   0  0  0  0  0  0  0  0  0  0  0  0
    7.9235   -9.5952   18.9832 H   0  0  0  0  0  0  0  0  0  0  0  0
    6.1355  -11.0918   20.7579 H   0  0  0  0  0  0  0  0  0  0  0  0
    5.7504  -11.8651   19.1324 H   0  0  0  0  0  0  0  0  0  0  0  0
    4.5520  -13.4444   20.5920 H   0  0  0  0  0  0  0  0  0  0  0  0
    3.1741  -14.7137   23.2523 H   0  0  0  0  0  0  0  0  0  0  0  0
    3.0524  -13.3846   24.3935 H   0  0  0  0  0  0  0  0  0  0  0  0
   -0.0142  -14.8367   22.0977 H   0  0  0  0  0  0  0  0  0  0  0  0
   -2.9173  -15.9610   25.0905 H   0  0  0  0  0  0  0  0  0  0  0  0
   -0.3630  -15.1453   24.5677 H   0  0  0  0  0  0  0  0  0  0  0  0
   11.3983   -3.1240   16.9132 H   0  0  0  0  0  0  0  0  0  0  0  0
  1  2  1  0
  2  3  2  0
  3  4  1  0
  4  5  1  0
  5  6  2  0
  5  7  1  0
  7  8  1  0
  8  9  1  0
  9 10  1  0
  9 11  1  0
 11 12  1  0
 12 13  1  0
 13 14  2  0
 13 15  1  0
 15 16  1  0
 16 17  2  0
 17 18  1  0
 18 19  2  0
 19 20  1  0
 20 21  2  0
  4 22  2  0
 22 23  1  0
 23  2  1  0
 21 16  1  0
  1 24  1  0
  1 25  1  0
  1 26  1  0
  3 27  1  0
  7 28  1  0
  8 29  1  0
  8 30  1  0
  9 31  1  0
 10 32  1  0
 10 33  1  0
 10 34  1  0
 11 35  1  0
 11 36  1  0
 12 37  1  0
 15 38  1  0
 15 39  1  0
 17 40  1  0
 19 41  1  0
 21 42  1  0
 22 43  1  0
M  END
>  <Energy>  (781) 
2046.8922955745147

>  <compound_id>  (781) 
17531

>  <target_id>  (781) 
1

>  <reference_id>  (781) 
66

>  <inspiration_ids>  (781) 
[66, 54]

>  <energy_score>  (781) 
2024.6146683105721

>  <distance_score>  (781) 
11.222977535865146

>  <path>  (781) 
/opt/xchem-fragalysis-2/maxwin/BulkDock/SCRATCH/511014/C17531-P66/C17531-P66.minimised.mol

>  <scratch_subdir>  (781) 
/opt/xchem-fragalysis-2/maxwin/BulkDock/SCRATCH/511014/C17531-P66

>  <fragmenstein_runtime>  (781) 
30.281853675842285

>  <fragmenstein_outcome>  (781) 
too moved

>  <fragmenstein_mode>  (781) 
expansion

>  <fragmenstein_error>  (781) 


$$$$
C17531-P54
     RDKit          3D

 43 44  0  0  0  0  0  0  0  0999 V2000
    9.9459   -9.5179   23.5392 C   0  0  0  0  0  0  0  0  0  0  0  0
    8.4695   -9.5051   23.7295 C   0  0  0  0  0  0  0  0  0  0  0  0
    7.5522  -10.4785   23.3880 C   0  0  0  0  0  0  0  0  0  0  0  0
    6.1687  -10.1540   23.7207 C   0  0  0  0  0  0  0  0  0  0  0  0
    5.0248  -10.6866   22.9923 C   0  0  0  0  0  0  0  0  0  0  0  0
    4.9218   -9.9612   21.5427 O   0  0  0  0  0  0  0  0  0  0  0  0
    4.1376  -11.4280   22.9642 N   0  0  0  0  0  0  0  0  0  0  0  0
    2.5917  -11.9762   21.8882 C   0  0  0  0  0  0  0  0  0  0  0  0
    0.4903  -12.2798   21.8668 C   0  0  0  0  0  0  0  0  0  0  0  0
    0.8883  -10.6677   21.0346 C   0  0  0  0  0  0  0  0  0  0  0  0
   -1.4204  -13.1255   22.4279 C   0  0  0  0  0  0  0  0  0  0  0  0
   -2.4634  -14.6826   23.2751 N   0  0  0  0  0  0  0  0  0  0  0  0
   -1.9562  -15.9200   24.6814 C   0  0  0  0  0  0  0  0  0  0  0  0
   -0.9198  -15.7275   25.2229 O   0  0  0  0  0  0  0  0  0  0  0  0
   -2.6274  -17.4653   25.2973 C   0  0  0  0  0  0  0  0  0  0  0  0
   -3.4084  -17.8618   26.6254 C   0  0  0  0  0  0  0  0  0  0  0  0
   -3.3639  -17.1920   27.7999 C   0  0  0  0  0  0  0  0  0  0  0  0
   -4.4476  -16.5805   28.3010 N   0  0  0  0  0  0  0  0  0  0  0  0
   -5.5836  -16.8397   27.6398 C   0  0  0  0  0  0  0  0  0  0  0  0
   -5.7511  -17.8432   26.7642 N   0  0  0  0  0  0  0  0  0  0  0  0
   -4.6164  -18.4509   26.3967 C   0  0  0  0  0  0  0  0  0  0  0  0
    6.1529   -8.8602   24.2393 C   0  0  0  0  0  0  0  0  0  0  0  0
    7.7023   -8.1456   24.4086 S   0  0  0  0  0  0  0  0  0  0  0  0
   10.4631   -9.3688   24.4927 H   0  0  0  0  0  0  0  0  0  0  0  0
   10.2785  -10.4759   23.1255 H   0  0  0  0  0  0  0  0  0  0  0  0
   10.2545   -8.7284   22.8461 H   0  0  0  0  0  0  0  0  0  0  0  0
    7.8488  -11.3745   22.8561 H   0  0  0  0  0  0  0  0  0  0  0  0
    3.5759  -12.1755   23.2954 H   0  0  0  0  0  0  0  0  0  0  0  0
    2.9766  -12.9387   21.4937 H   0  0  0  0  0  0  0  0  0  0  0  0
    2.7568  -11.3939   21.0311 H   0  0  0  0  0  0  0  0  0  0  0  0
    0.8310  -13.0845   21.2362 H   0  0  0  0  0  0  0  0  0  0  0  0
    1.0324  -10.0678   21.8919 H   0  0  0  0  0  0  0  0  0  0  0  0
    0.0745  -10.3911   20.3473 H   0  0  0  0  0  0  0  0  0  0  0  0
    1.6878  -10.5486   20.3115 H   0  0  0  0  0  0  0  0  0  0  0  0
   -1.9136  -12.3472   23.0235 H   0  0  0  0  0  0  0  0  0  0  0  0
   -1.6933  -13.4068   21.4205 H   0  0  0  0  0  0  0  0  0  0  0  0
   -3.3935  -14.9097   22.9665 H   0  0  0  0  0  0  0  0  0  0  0  0
   -1.7170  -17.7022   25.8401 H   0  0  0  0  0  0  0  0  0  0  0  0
   -2.7695  -18.2661   24.5629 H   0  0  0  0  0  0  0  0  0  0  0  0
   -2.4242  -17.0213   28.3068 H   0  0  0  0  0  0  0  0  0  0  0  0
   -6.4504  -16.2491   27.8914 H   0  0  0  0  0  0  0  0  0  0  0  0
   -4.6609  -19.1813   25.6027 H   0  0  0  0  0  0  0  0  0  0  0  0
    5.2865   -8.2562   24.4695 H   0  0  0  0  0  0  0  0  0  0  0  0
  1  2  1  0
  2  3  2  0
  3  4  1  0
  4  5  1  0
  5  6  2  0
  5  7  1  0
  7  8  1  0
  8  9  1  0
  9 10  1  0
  9 11  1  0
 11 12  1  0
 12 13  1  0
 13 14  2  0
 13 15  1  0
 15 16  1  0
 16 17  2  0
 17 18  1  0
 18 19  2  0
 19 20  1  0
 20 21  2  0
  4 22  2  0
 22 23  1  0
 23  2  1  0
 21 16  1  0
  1 24  1  0
  1 25  1  0
  1 26  1  0
  3 27  1  0
  7 28  1  0
  8 29  1  0
  8 30  1  0
  9 31  1  0
 10 32  1  0
 10 33  1  0
 10 34  1  0
 11 35  1  0
 11 36  1  0
 12 37  1  0
 15 38  1  0
 15 39  1  0
 17 40  1  0
 19 41  1  0
 21 42  1  0
 22 43  1  0
M  END
>  <Energy>  (782) 
936.3685491692612

>  <compound_id>  (782) 
17531

>  <target_id>  (782) 
1

>  <reference_id>  (782) 
54

>  <inspiration_ids>  (782) 
[66, 54]

>  <energy_score>  (782) 
914.0909219052787

>  <distance_score>  (782) 
11.321631996012815

>  <path>  (782) 
/opt/xchem-fragalysis-2/maxwin/BulkDock/SCRATCH/511014/C17531-P54/C17531-P54.minimised.mol

>  <scratch_subdir>  (782) 
/opt/xchem-fragalysis-2/maxwin/BulkDock/SCRATCH/511014/C17531-P54

>  <fragmenstein_runtime>  (782) 
27.217982053756714

>  <fragmenstein_outcome>  (782) 
too moved

>  <fragmenstein_mode>  (782) 
expansion

>  <fragmenstein_error>  (782) 


$$$$
C17532-P66
     RDKit          3D

 43 44  0  0  0  0  0  0  0  0999 V2000
   11.4366   -9.8280   22.3468 C   0  0  0  0  0  0  0  0  0  0  0  0
   10.6121  -10.2291   23.5159 C   0  0  0  0  0  0  0  0  0  0  0  0
    9.9913   -9.4273   24.4480 C   0  0  0  0  0  0  0  0  0  0  0  0
    9.2837  -10.1925   25.4284 C   0  0  0  0  0  0  0  0  0  0  0  0
    9.4216  -11.5626   25.2603 C   0  0  0  0  0  0  0  0  0  0  0  0
    9.0013  -12.7191   26.1910 C   0  0  0  0  0  0  0  0  0  0  0  0
    7.4739  -12.9168   26.3671 C   0  0  0  0  0  0  0  0  0  0  0  0
    6.6688  -12.3071   25.8223 O   0  0  0  0  0  0  0  0  0  0  0  0
    7.3902  -14.1779   27.4881 N   0  0  0  0  0  0  0  0  0  0  0  0
    6.2248  -14.5646   28.0087 C   0  0  0  0  0  0  0  0  0  0  0  0
    5.9790  -15.3022   28.2721 C   0  0  0  0  0  0  0  0  0  0  0  0
    5.5145  -15.3021   29.9683 C   0  0  0  0  0  0  0  0  0  0  0  0
    4.9828  -16.4033   27.3225 C   0  0  0  0  0  0  0  0  0  0  0  0
    3.7229  -16.9258   27.9029 N   0  0  0  0  0  0  0  0  0  0  0  0
    3.1386  -18.2559   27.8663 C   0  0  0  0  0  0  0  0  0  0  0  0
    3.5673  -19.2847   27.4266 O   0  0  0  0  0  0  0  0  0  0  0  0
    1.7077  -18.4091   28.3590 C   0  0  0  0  0  0  0  0  0  0  0  0
    1.0877  -17.7196   29.3762 C   0  0  0  0  0  0  0  0  0  0  0  0
   -0.2113  -17.8987   29.7633 N   0  0  0  0  0  0  0  0  0  0  0  0
   -0.9187  -18.8234   29.0935 C   0  0  0  0  0  0  0  0  0  0  0  0
   -0.4442  -19.5707   28.0923 N   0  0  0  0  0  0  0  0  0  0  0  0
    0.8637  -19.3523   27.7665 C   0  0  0  0  0  0  0  0  0  0  0  0
   10.3254  -11.8866   23.8271 S   0  0  0  0  0  0  0  0  0  0  0  0
   12.4580  -10.2114   22.4390 H   0  0  0  0  0  0  0  0  0  0  0  0
   11.0015  -10.2101   21.4175 H   0  0  0  0  0  0  0  0  0  0  0  0
   11.4934   -8.7372   22.2692 H   0  0  0  0  0  0  0  0  0  0  0  0
   10.0286   -8.3450   24.4335 H   0  0  0  0  0  0  0  0  0  0  0  0
    8.7364   -9.7545   26.2543 H   0  0  0  0  0  0  0  0  0  0  0  0
    9.4163  -13.6651   25.8236 H   0  0  0  0  0  0  0  0  0  0  0  0
    9.4306  -12.5221   27.1810 H   0  0  0  0  0  0  0  0  0  0  0  0
    5.7807  -14.2924   26.8603 H   0  0  0  0  0  0  0  0  0  0  0  0
    5.3461  -13.6336   28.0826 H   0  0  0  0  0  0  0  0  0  0  0  0
    6.5835  -13.7157   28.8485 H   0  0  0  0  0  0  0  0  0  0  0  0
    6.7575  -16.2223   28.4944 H   0  0  0  0  0  0  0  0  0  0  0  0
    4.7378  -14.5473   30.1323 H   0  0  0  0  0  0  0  0  0  0  0  0
    5.1192  -16.2923   30.2133 H   0  0  0  0  0  0  0  0  0  0  0  0
    6.3942  -15.0925   30.5867 H   0  0  0  0  0  0  0  0  0  0  0  0
    5.6082  -17.2661   27.0604 H   0  0  0  0  0  0  0  0  0  0  0  0
    4.7192  -15.9178   26.3784 H   0  0  0  0  0  0  0  0  0  0  0  0
    3.0421  -16.2755   28.2767 H   0  0  0  0  0  0  0  0  0  0  0  0
    1.6211  -16.9762   29.9611 H   0  0  0  0  0  0  0  0  0  0  0  0
   -1.9514  -18.9719   29.3874 H   0  0  0  0  0  0  0  0  0  0  0  0
    1.2297  -19.9840   26.9570 H   0  0  0  0  0  0  0  0  0  0  0  0
  1  2  1  0
  2  3  2  0
  3  4  1  0
  4  5  2  0
  5  6  1  0
  6  7  1  0
  7  8  2  0
  7  9  1  0
  9 10  1  0
  9 11  1  0
 11 12  1  0
 11 13  1  0
 13 14  1  0
 14 15  1  0
 15 16  2  0
 15 17  1  0
 17 18  2  0
 18 19  1  0
 19 20  2  0
 20 21  1  0
 21 22  2  0
  5 23  1  0
 23  2  1  0
 22 17  1  0
  1 24  1  0
  1 25  1  0
  1 26  1  0
  3 27  1  0
  4 28  1  0
  6 29  1  0
  6 30  1  0
 10 31  1  0
 10 32  1  0
 10 33  1  0
 11 34  1  0
 12 35  1  0
 12 36  1  0
 12 37  1  0
 13 38  1  0
 13 39  1  0
 14 40  1  0
 18 41  1  0
 20 42  1  0
 22 43  1  0
M  END
>  <Energy>  (783) 
790.47290036364393

>  <compound_id>  (783) 
17532

>  <target_id>  (783) 
1

>  <reference_id>  (783) 
66

>  <inspiration_ids>  (783) 
[66, 54]

>  <energy_score>  (783) 
728.2256597607926

>  <distance_score>  (783) 
13.616005831357308

>  <path>  (783) 
/opt/xchem-fragalysis-2/maxwin/BulkDock/SCRATCH/511014/C17532-P66/C17532-P66.minimised.mol

>  <scratch_subdir>  (783) 
/opt/xchem-fragalysis-2/maxwin/BulkDock/SCRATCH/511014/C17532-P66

>  <fragmenstein_runtime>  (783) 
33.45268678665161

>  <fragmenstein_outcome>  (783) 
too moved

>  <fragmenstein_mode>  (783) 
expansion

>  <fragmenstein_error>  (783) 


$$$$
C17532-P54
     RDKit          3D

 43 44  0  0  0  0  0  0  0  0999 V2000
    9.9553   -5.3590   21.1836 C   0  0  0  0  0  0  0  0  0  0  0  0
    8.7646   -6.1397   21.6225 C   0  0  0  0  0  0  0  0  0  0  0  0
    7.4786   -5.6982   21.8347 C   0  0  0  0  0  0  0  0  0  0  0  0
    6.6074   -6.7437   22.2881 C   0  0  0  0  0  0  0  0  0  0  0  0
    7.2359   -7.9688   22.4028 C   0  0  0  0  0  0  0  0  0  0  0  0
    6.7176   -9.3742   22.6723 C   0  0  0  0  0  0  0  0  0  0  0  0
    5.5238   -9.6796   23.6427 C   0  0  0  0  0  0  0  0  0  0  0  0
    5.1737   -9.1189   24.5841 O   0  0  0  0  0  0  0  0  0  0  0  0
    5.0187  -11.1360   22.9096 N   0  0  0  0  0  0  0  0  0  0  0  0
    3.6973  -11.9500   23.4343 C   0  0  0  0  0  0  0  0  0  0  0  0
    3.8377  -12.5493   23.3311 C   0  0  0  0  0  0  0  0  0  0  0  0
    3.7560  -13.5314   21.7614 C   0  0  0  0  0  0  0  0  0  0  0  0
    3.5944  -13.5167   25.1175 C   0  0  0  0  0  0  0  0  0  0  0  0
    2.5565  -14.7596   25.7521 N   0  0  0  0  0  0  0  0  0  0  0  0
    1.6027  -14.7419   26.8597 C   0  0  0  0  0  0  0  0  0  0  0  0
    1.3542  -13.8855   27.6607 O   0  0  0  0  0  0  0  0  0  0  0  0
    0.6503  -15.9187   27.0420 C   0  0  0  0  0  0  0  0  0  0  0  0
    0.8064  -17.2289   26.6575 C   0  0  0  0  0  0  0  0  0  0  0  0
   -0.1379  -18.2099   26.8386 N   0  0  0  0  0  0  0  0  0  0  0  0
   -1.2682  -17.8678   27.4876 C   0  0  0  0  0  0  0  0  0  0  0  0
   -1.5361  -16.6418   27.9300 N   0  0  0  0  0  0  0  0  0  0  0  0
   -0.5741  -15.7067   27.6908 C   0  0  0  0  0  0  0  0  0  0  0  0
    8.9055   -7.8096   21.9456 S   0  0  0  0  0  0  0  0  0  0  0  0
   10.2945   -5.6959   20.1984 H   0  0  0  0  0  0  0  0  0  0  0  0
    9.7184   -4.2924   21.1111 H   0  0  0  0  0  0  0  0  0  0  0  0
   10.7803   -5.4696   21.8950 H   0  0  0  0  0  0  0  0  0  0  0  0
    7.1673   -4.6706   21.6829 H   0  0  0  0  0  0  0  0  0  0  0  0
    5.5548   -6.5937   22.4891 H   0  0  0  0  0  0  0  0  0  0  0  0
    7.5433   -9.9936   23.0495 H   0  0  0  0  0  0  0  0  0  0  0  0
    6.4564   -9.7647   21.6802 H   0  0  0  0  0  0  0  0  0  0  0  0
    2.9507  -11.5264   22.3622 H   0  0  0  0  0  0  0  0  0  0  0  0
    2.5868  -11.6225   24.0934 H   0  0  0  0  0  0  0  0  0  0  0  0
    3.9184  -11.2091   24.4540 H   0  0  0  0  0  0  0  0  0  0  0  0
    4.8939  -13.0598   23.0446 H   0  0  0  0  0  0  0  0  0  0  0  0
    2.9600  -13.1469   21.1224 H   0  0  0  0  0  0  0  0  0  0  0  0
    4.7164  -13.5341   21.3791 H   0  0  0  0  0  0  0  0  0  0  0  0
    3.7294  -14.6222   21.8548 H   0  0  0  0  0  0  0  0  0  0  0  0
    2.9794  -12.7365   25.5213 H   0  0  0  0  0  0  0  0  0  0  0  0
    3.4710  -14.3172   24.4080 H   0  0  0  0  0  0  0  0  0  0  0  0
    2.5595  -15.6841   25.3309 H   0  0  0  0  0  0  0  0  0  0  0  0
    1.7094  -17.5781   26.1647 H   0  0  0  0  0  0  0  0  0  0  0  0
   -2.0149  -18.6378   27.6456 H   0  0  0  0  0  0  0  0  0  0  0  0
   -0.8403  -14.7156   28.0592 H   0  0  0  0  0  0  0  0  0  0  0  0
  1  2  1  0
  2  3  2  0
  3  4  1  0
  4  5  2  0
  5  6  1  0
  6  7  1  0
  7  8  2  0
  7  9  1  0
  9 10  1  0
  9 11  1  0
 11 12  1  0
 11 13  1  0
 13 14  1  0
 14 15  1  0
 15 16  2  0
 15 17  1  0
 17 18  2  0
 18 19  1  0
 19 20  2  0
 20 21  1  0
 21 22  2  0
  5 23  1  0
 23  2  1  0
 22 17  1  0
  1 24  1  0
  1 25  1  0
  1 26  1  0
  3 27  1  0
  4 28  1  0
  6 29  1  0
  6 30  1  0
 10 31  1  0
 10 32  1  0
 10 33  1  0
 11 34  1  0
 12 35  1  0
 12 36  1  0
 12 37  1  0
 13 38  1  0
 13 39  1  0
 14 40  1  0
 18 41  1  0
 20 42  1  0
 22 43  1  0
M  END
>  <Energy>  (784) 
976.09654519830076

>  <compound_id>  (784) 
17532

>  <target_id>  (784) 
1

>  <reference_id>  (784) 
54

>  <inspiration_ids>  (784) 
[66, 54]

>  <energy_score>  (784) 
913.849304595466

>  <distance_score>  (784) 
12.14477660757073

>  <path>  (784) 
/opt/xchem-fragalysis-2/maxwin/BulkDock/SCRATCH/511014/C17532-P54/C17532-P54.minimised.mol

>  <scratch_subdir>  (784) 
/opt/xchem-fragalysis-2/maxwin/BulkDock/SCRATCH/511014/C17532-P54

>  <fragmenstein_runtime>  (784) 
28.57888174057007

>  <fragmenstein_outcome>  (784) 
too moved

>  <fragmenstein_mode>  (784) 
expansion

>  <fragmenstein_error>  (784) 


$$$$
C17533-P66
     RDKit          3D

 43 44  0  0  0  0  0  0  0  0999 V2000
    9.4008   -6.6308   19.2175 C   0  0  0  0  0  0  0  0  0  0  0  0
    9.2001   -8.6944   19.4030 C   0  0  0  0  0  0  0  0  0  0  0  0
    8.8455  -10.1660   18.4951 C   0  0  0  0  0  0  0  0  0  0  0  0
    7.4049  -10.7869   19.5561 C   0  0  0  0  0  0  0  0  0  0  0  0
    6.0355  -11.3155   18.9062 C   0  0  0  0  0  0  0  0  0  0  0  0
    5.0416  -12.7029   19.7586 C   0  0  0  0  0  0  0  0  0  0  0  0
    5.3710  -12.7770   20.8790 O   0  0  0  0  0  0  0  0  0  0  0  0
    3.5945  -13.7875   19.1754 N   0  0  0  0  0  0  0  0  0  0  0  0
    2.3164  -15.0436   20.2149 C   0  0  0  0  0  0  0  0  0  0  0  0
    0.6285  -16.1313   21.1500 C   0  0  0  0  0  0  0  0  0  0  0  0
   -0.1589  -14.7618   22.3037 C   0  0  0  0  0  0  0  0  0  0  0  0
   -0.0751  -18.0228   21.7298 N   0  0  0  0  0  0  0  0  0  0  0  0
    0.1183  -19.0869   23.4167 C   0  0  0  0  0  0  0  0  0  0  0  0
    0.6693  -18.7368   24.5307 O   0  0  0  0  0  0  0  0  0  0  0  0
   -0.4249  -21.0263   23.5319 C   0  0  0  0  0  0  0  0  0  0  0  0
   -1.9336  -21.6255   23.6431 C   0  0  0  0  0  0  0  0  0  0  0  0
   -2.5238  -22.1038   24.9535 C   0  0  0  0  0  0  0  0  0  0  0  0
   -3.5751  -21.4675   25.5952 C   0  0  0  0  0  0  0  0  0  0  0  0
   -4.0937  -21.8441   26.7849 N   0  0  0  0  0  0  0  0  0  0  0  0
   -3.5386  -22.9327   27.3236 C   0  0  0  0  0  0  0  0  0  0  0  0
   -2.5539  -23.6647   26.7913 N   0  0  0  0  0  0  0  0  0  0  0  0
   -2.0663  -23.2238   25.6127 C   0  0  0  0  0  0  0  0  0  0  0  0
    7.9263  -10.2288   18.4223 S   0  0  0  0  0  0  0  0  0  0  0  0
    9.9803   -6.0483   18.4809 H   0  0  0  0  0  0  0  0  0  0  0  0
    9.8564   -7.4406   20.3409 H   0  0  0  0  0  0  0  0  0  0  0  0
   10.1538   -5.8778   20.0410 H   0  0  0  0  0  0  0  0  0  0  0  0
    9.8304  -10.8780   18.2809 H   0  0  0  0  0  0  0  0  0  0  0  0
    6.9028  -10.5063   20.4237 H   0  0  0  0  0  0  0  0  0  0  0  0
    3.4856  -13.6739   18.1682 H   0  0  0  0  0  0  0  0  0  0  0  0
    2.1483  -15.0933   19.1091 H   0  0  0  0  0  0  0  0  0  0  0  0
    2.6386  -14.4297   21.0047 H   0  0  0  0  0  0  0  0  0  0  0  0
    0.0045  -16.2662   20.2583 H   0  0  0  0  0  0  0  0  0  0  0  0
    0.4174  -14.3246   23.1677 H   0  0  0  0  0  0  0  0  0  0  0  0
   -1.0847  -14.9582   22.7866 H   0  0  0  0  0  0  0  0  0  0  0  0
   -0.2378  -13.7925   22.0009 H   0  0  0  0  0  0  0  0  0  0  0  0
   -0.6264  -18.5307   21.0541 H   0  0  0  0  0  0  0  0  0  0  0  0
    0.1389  -21.4098   24.4285 H   0  0  0  0  0  0  0  0  0  0  0  0
    0.2495  -21.7857   23.1131 H   0  0  0  0  0  0  0  0  0  0  0  0
   -1.9794  -22.4870   22.9610 H   0  0  0  0  0  0  0  0  0  0  0  0
   -2.6147  -20.9039   23.2208 H   0  0  0  0  0  0  0  0  0  0  0  0
   -4.0403  -20.5848   25.1674 H   0  0  0  0  0  0  0  0  0  0  0  0
   -3.9021  -23.2559   28.2873 H   0  0  0  0  0  0  0  0  0  0  0  0
   -1.2522  -23.8190   25.2069 H   0  0  0  0  0  0  0  0  0  0  0  0
  1  2  1  0
  2  3  2  0
  3  4  1  0
  4  5  2  0
  5  6  1  0
  6  7  2  0
  6  8  1  0
  8  9  1  0
  9 10  1  0
 10 11  1  0
 10 12  1  0
 12 13  1  0
 13 14  2  0
 13 15  1  0
 15 16  1  0
 16 17  1  0
 17 18  2  0
 18 19  1  0
 19 20  2  0
 20 21  1  0
 21 22  2  0
  5 23  1  0
 23  2  1  0
 22 17  1  0
  1 24  1  0
  1 25  1  0
  1 26  1  0
  3 27  1  0
  4 28  1  0
  8 29  1  0
  9 30  1  0
  9 31  1  0
 10 32  1  0
 11 33  1  0
 11 34  1  0
 11 35  1  0
 12 36  1  0
 15 37  1  0
 15 38  1  0
 16 39  1  0
 16 40  1  0
 18 41  1  0
 20 42  1  0
 22 43  1  0
M  END
>  <Energy>  (785) 
1786.81748228028

>  <compound_id>  (785) 
17533

>  <target_id>  (785) 
1

>  <reference_id>  (785) 
66

>  <inspiration_ids>  (785) 
[66, 54]

>  <energy_score>  (785) 
1759.6958270968917

>  <distance_score>  (785) 
11.15025278837141

>  <path>  (785) 
/opt/xchem-fragalysis-2/maxwin/BulkDock/SCRATCH/511014/C17533-P66/C17533-P66.minimised.mol

>  <scratch_subdir>  (785) 
/opt/xchem-fragalysis-2/maxwin/BulkDock/SCRATCH/511014/C17533-P66

>  <fragmenstein_runtime>  (785) 
29.09083580970764

>  <fragmenstein_outcome>  (785) 
too moved

>  <fragmenstein_mode>  (785) 
expansion

>  <fragmenstein_error>  (785) 


$$$$
C17533-P54
     RDKit          3D

 43 44  0  0  0  0  0  0  0  0999 V2000
   11.7292   -7.5818   19.5837 C   0  0  0  0  0  0  0  0  0  0  0  0
   10.6110   -7.3629   20.5457 C   0  0  0  0  0  0  0  0  0  0  0  0
   10.0926   -6.1695   20.9962 C   0  0  0  0  0  0  0  0  0  0  0  0
    9.0527   -6.3734   21.9522 C   0  0  0  0  0  0  0  0  0  0  0  0
    8.7700   -7.7147   22.1955 C   0  0  0  0  0  0  0  0  0  0  0  0
    7.6462   -8.2365   23.0345 C   0  0  0  0  0  0  0  0  0  0  0  0
    7.0842   -7.4510   23.7383 O   0  0  0  0  0  0  0  0  0  0  0  0
    7.3682   -9.6236   22.7686 N   0  0  0  0  0  0  0  0  0  0  0  0
    6.2412  -10.4947   23.2024 C   0  0  0  0  0  0  0  0  0  0  0  0
    4.8768  -10.3966   22.1939 C   0  0  0  0  0  0  0  0  0  0  0  0
    5.5573   -9.3858   20.9885 C   0  0  0  0  0  0  0  0  0  0  0  0
    2.9718  -11.0963   21.9115 N   0  0  0  0  0  0  0  0  0  0  0  0
    2.4699  -12.3481   21.4694 C   0  0  0  0  0  0  0  0  0  0  0  0
    3.0443  -13.3129   21.0593 O   0  0  0  0  0  0  0  0  0  0  0  0
    0.4345  -12.3518   21.7930 C   0  0  0  0  0  0  0  0  0  0  0  0
   -1.2798  -12.8312   22.5654 C   0  0  0  0  0  0  0  0  0  0  0  0
   -2.5216  -12.9819   23.7562 C   0  0  0  0  0  0  0  0  0  0  0  0
   -3.0658  -14.1408   23.2540 C   0  0  0  0  0  0  0  0  0  0  0  0
   -2.8004  -15.3156   23.9507 N   0  0  0  0  0  0  0  0  0  0  0  0
   -2.4401  -15.4119   25.2320 C   0  0  0  0  0  0  0  0  0  0  0  0
   -2.3749  -14.3128   25.9073 N   0  0  0  0  0  0  0  0  0  0  0  0
   -2.3041  -13.1242   25.2341 C   0  0  0  0  0  0  0  0  0  0  0  0
    9.8295   -8.7044   21.2760 S   0  0  0  0  0  0  0  0  0  0  0  0
   12.0374   -6.6375   19.1227 H   0  0  0  0  0  0  0  0  0  0  0  0
   12.5988   -8.0067   20.0957 H   0  0  0  0  0  0  0  0  0  0  0  0
   11.4306   -8.2620   18.7801 H   0  0  0  0  0  0  0  0  0  0  0  0
   10.4504   -5.1945   20.6836 H   0  0  0  0  0  0  0  0  0  0  0  0
    8.5039   -5.5700   22.4343 H   0  0  0  0  0  0  0  0  0  0  0  0
    8.1038  -10.0013   22.1826 H   0  0  0  0  0  0  0  0  0  0  0  0
    5.9632  -10.0879   24.1730 H   0  0  0  0  0  0  0  0  0  0  0  0
    6.7483  -11.4380   23.2854 H   0  0  0  0  0  0  0  0  0  0  0  0
    4.7112   -9.6193   22.9152 H   0  0  0  0  0  0  0  0  0  0  0  0
    5.9015   -8.4328   21.4021 H   0  0  0  0  0  0  0  0  0  0  0  0
    4.8693   -9.0623   20.2165 H   0  0  0  0  0  0  0  0  0  0  0  0
    6.4399   -9.8410   20.5389 H   0  0  0  0  0  0  0  0  0  0  0  0
    2.1947  -10.4892   22.1103 H   0  0  0  0  0  0  0  0  0  0  0  0
    0.8437  -13.2193   21.3063 H   0  0  0  0  0  0  0  0  0  0  0  0
   -0.4758  -12.5826   21.1028 H   0  0  0  0  0  0  0  0  0  0  0  0
   -1.7039  -13.4621   21.7839 H   0  0  0  0  0  0  0  0  0  0  0  0
   -1.7588  -11.8963   22.7940 H   0  0  0  0  0  0  0  0  0  0  0  0
   -3.5329  -14.1642   22.2914 H   0  0  0  0  0  0  0  0  0  0  0  0
   -2.1867  -16.3738   25.6410 H   0  0  0  0  0  0  0  0  0  0  0  0
   -1.7862  -12.4694   25.8985 H   0  0  0  0  0  0  0  0  0  0  0  0
  1  2  1  0
  2  3  2  0
  3  4  1  0
  4  5  2  0
  5  6  1  0
  6  7  2  0
  6  8  1  0
  8  9  1  0
  9 10  1  0
 10 11  1  0
 10 12  1  0
 12 13  1  0
 13 14  2  0
 13 15  1  0
 15 16  1  0
 16 17  1  0
 17 18  2  0
 18 19  1  0
 19 20  2  0
 20 21  1  0
 21 22  2  0
  5 23  1  0
 23  2  1  0
 22 17  1  0
  1 24  1  0
  1 25  1  0
  1 26  1  0
  3 27  1  0
  4 28  1  0
  8 29  1  0
  9 30  1  0
  9 31  1  0
 10 32  1  0
 11 33  1  0
 11 34  1  0
 11 35  1  0
 12 36  1  0
 15 37  1  0
 15 38  1  0
 16 39  1  0
 16 40  1  0
 18 41  1  0
 20 42  1  0
 22 43  1  0
M  END
>  <Energy>  (786) 
556.2159028567479

>  <compound_id>  (786) 
17533

>  <target_id>  (786) 
1

>  <reference_id>  (786) 
54

>  <inspiration_ids>  (786) 
[66, 54]

>  <energy_score>  (786) 
529.0942476733227

>  <distance_score>  (786) 
11.849461537656637

>  <path>  (786) 
/opt/xchem-fragalysis-2/maxwin/BulkDock/SCRATCH/511014/C17533-P54/C17533-P54.minimised.mol

>  <scratch_subdir>  (786) 
/opt/xchem-fragalysis-2/maxwin/BulkDock/SCRATCH/511014/C17533-P54

>  <fragmenstein_runtime>  (786) 
35.35158348083496

>  <fragmenstein_outcome>  (786) 
too moved

>  <fragmenstein_mode>  (786) 
expansion

>  <fragmenstein_error>  (786) 


$$$$
C17534-P66
     RDKit          3D

 40 41  0  0  0  0  0  0  0  0999 V2000
   11.4335   -6.3079   21.6551 C   0  0  0  0  0  0  0  0  0  0  0  0
   10.3705   -7.1236   21.0055 C   0  0  0  0  0  0  0  0  0  0  0  0
    9.8595   -8.4499   20.9993 C   0  0  0  0  0  0  0  0  0  0  0  0
    8.6765   -8.7638   20.1150 C   0  0  0  0  0  0  0  0  0  0  0  0
    7.5675   -7.6569   20.0009 C   0  0  0  0  0  0  0  0  0  0  0  0
    6.3990   -7.1157   21.5669 C   0  0  0  0  0  0  0  0  0  0  0  0
    6.7828   -6.0899   21.9521 O   0  0  0  0  0  0  0  0  0  0  0  0
    4.7250   -8.0506   22.4208 N   0  0  0  0  0  0  0  0  0  0  0  0
    4.0605   -7.5788   23.5602 C   0  0  0  0  0  0  0  0  0  0  0  0
    2.6432   -8.0572   21.9999 C   0  0  0  0  0  0  0  0  0  0  0  0
    1.5002   -6.6638   21.0975 C   0  0  0  0  0  0  0  0  0  0  0  0
    0.9595   -8.9129   21.6393 C   0  0  0  0  0  0  0  0  0  0  0  0
   -0.3778   -9.0398   21.0139 N   0  0  0  0  0  0  0  0  0  0  0  0
   -1.7159   -8.9822   21.5975 C   0  0  0  0  0  0  0  0  0  0  0  0
   -2.0698   -8.7324   22.7161 O   0  0  0  0  0  0  0  0  0  0  0  0
   -2.9012   -9.3945   20.7652 C   0  0  0  0  0  0  0  0  0  0  0  0
   -2.9033  -10.5411   19.9977 C   0  0  0  0  0  0  0  0  0  0  0  0
   -4.0213  -11.2162   19.6087 N   0  0  0  0  0  0  0  0  0  0  0  0
   -5.1946  -10.7676   20.0813 C   0  0  0  0  0  0  0  0  0  0  0  0
   -5.3456   -9.6916   20.8552 N   0  0  0  0  0  0  0  0  0  0  0  0
   -4.1874   -9.0607   21.1983 C   0  0  0  0  0  0  0  0  0  0  0  0
    9.4194   -6.1236   19.1626 S   0  0  0  0  0  0  0  0  0  0  0  0
   12.0168   -5.7446   20.9227 H   0  0  0  0  0  0  0  0  0  0  0  0
   12.1163   -6.9537   22.2148 H   0  0  0  0  0  0  0  0  0  0  0  0
   10.9810   -5.5980   22.3536 H   0  0  0  0  0  0  0  0  0  0  0  0
   10.3620   -9.2353   21.5525 H   0  0  0  0  0  0  0  0  0  0  0  0
    8.3482   -9.7922   19.9868 H   0  0  0  0  0  0  0  0  0  0  0  0
    4.7566   -6.7242   23.7546 H   0  0  0  0  0  0  0  0  0  0  0  0
    4.7877   -7.8130   24.4481 H   0  0  0  0  0  0  0  0  0  0  0  0
    3.1722   -7.1611   24.0623 H   0  0  0  0  0  0  0  0  0  0  0  0
    2.3366   -8.3280   23.0142 H   0  0  0  0  0  0  0  0  0  0  0  0
    1.9214   -5.7006   20.7404 H   0  0  0  0  0  0  0  0  0  0  0  0
    1.1711   -7.1359   20.1703 H   0  0  0  0  0  0  0  0  0  0  0  0
    0.7701   -6.4121   21.8734 H   0  0  0  0  0  0  0  0  0  0  0  0
    0.4862   -8.5539   22.5670 H   0  0  0  0  0  0  0  0  0  0  0  0
    1.1501   -9.9339   21.4688 H   0  0  0  0  0  0  0  0  0  0  0  0
   -0.4476   -9.3664   20.0505 H   0  0  0  0  0  0  0  0  0  0  0  0
   -1.9856  -11.0408   19.7139 H   0  0  0  0  0  0  0  0  0  0  0  0
   -6.0865  -11.3179   19.8090 H   0  0  0  0  0  0  0  0  0  0  0  0
   -4.3311   -8.2621   21.9247 H   0  0  0  0  0  0  0  0  0  0  0  0
  1  2  1  0
  2  3  2  0
  3  4  1  0
  4  5  2  0
  5  6  1  0
  6  7  2  0
  6  8  1  0
  8  9  1  0
  8 10  1  0
 10 11  1  0
 10 12  1  0
 12 13  1  0
 13 14  1  0
 14 15  2  0
 14 16  1  0
 16 17  2  0
 17 18  1  0
 18 19  2  0
 19 20  1  0
 20 21  2  0
  5 22  1  0
 22  2  1  0
 21 16  1  0
  1 23  1  0
  1 24  1  0
  1 25  1  0
  3 26  1  0
  4 27  1  0
  9 28  1  0
  9 29  1  0
  9 30  1  0
 10 31  1  0
 11 32  1  0
 11 33  1  0
 11 34  1  0
 12 35  1  0
 12 36  1  0
 13 37  1  0
 17 38  1  0
 19 39  1  0
 21 40  1  0
M  END
>  <Energy>  (787) 
1072.8233951981733

>  <compound_id>  (787) 
17534

>  <target_id>  (787) 
1

>  <reference_id>  (787) 
66

>  <inspiration_ids>  (787) 
[66, 54]

>  <energy_score>  (787) 
1022.5427245355186

>  <distance_score>  (787) 
14.171709177789952

>  <path>  (787) 
/opt/xchem-fragalysis-2/maxwin/BulkDock/SCRATCH/511014/C17534-P66/C17534-P66.minimised.mol

>  <scratch_subdir>  (787) 
/opt/xchem-fragalysis-2/maxwin/BulkDock/SCRATCH/511014/C17534-P66

>  <fragmenstein_runtime>  (787) 
29.06079339981079

>  <fragmenstein_outcome>  (787) 
too moved

>  <fragmenstein_mode>  (787) 
expansion

>  <fragmenstein_error>  (787) 


$$$$
C17534-P54
     RDKit          3D

 40 41  0  0  0  0  0  0  0  0999 V2000
    9.7975  -16.7776   18.6918 C   0  0  0  0  0  0  0  0  0  0  0  0
    9.0587  -17.8950   19.3406 C   0  0  0  0  0  0  0  0  0  0  0  0
    9.4424  -18.6457   20.4264 C   0  0  0  0  0  0  0  0  0  0  0  0
    8.5456  -19.7436   20.6737 C   0  0  0  0  0  0  0  0  0  0  0  0
    7.4273  -19.7573   19.8530 C   0  0  0  0  0  0  0  0  0  0  0  0
    6.3968  -20.8060   19.5690 C   0  0  0  0  0  0  0  0  0  0  0  0
    6.8300  -21.8223   19.0906 O   0  0  0  0  0  0  0  0  0  0  0  0
    5.0296  -20.3949   19.8199 N   0  0  0  0  0  0  0  0  0  0  0  0
    3.7455  -21.0447   19.4661 C   0  0  0  0  0  0  0  0  0  0  0  0
    4.5531  -20.8499   21.3397 C   0  0  0  0  0  0  0  0  0  0  0  0
    5.7261  -21.1139   22.3106 C   0  0  0  0  0  0  0  0  0  0  0  0
    3.5444  -19.8101   22.0220 C   0  0  0  0  0  0  0  0  0  0  0  0
    2.1998  -20.3016   22.4279 N   0  0  0  0  0  0  0  0  0  0  0  0
    1.8091  -21.3259   23.3695 C   0  0  0  0  0  0  0  0  0  0  0  0
    2.4720  -22.0963   24.0051 O   0  0  0  0  0  0  0  0  0  0  0  0
    0.3145  -21.4433   23.6749 C   0  0  0  0  0  0  0  0  0  0  0  0
   -0.7461  -21.0892   22.8640 C   0  0  0  0  0  0  0  0  0  0  0  0
   -2.0681  -21.2446   23.1880 N   0  0  0  0  0  0  0  0  0  0  0  0
   -2.3334  -21.7892   24.3861 C   0  0  0  0  0  0  0  0  0  0  0  0
   -1.4094  -22.1833   25.2709 N   0  0  0  0  0  0  0  0  0  0  0  0
   -0.1119  -22.0091   24.8771 C   0  0  0  0  0  0  0  0  0  0  0  0
    7.5543  -18.4307   18.7356 S   0  0  0  0  0  0  0  0  0  0  0  0
   10.0603  -16.0137   19.4308 H   0  0  0  0  0  0  0  0  0  0  0  0
   10.7264  -17.1521   18.2486 H   0  0  0  0  0  0  0  0  0  0  0  0
    9.2196  -16.2977   17.8957 H   0  0  0  0  0  0  0  0  0  0  0  0
   10.3693  -18.4876   20.9641 H   0  0  0  0  0  0  0  0  0  0  0  0
    8.7388  -20.5238   21.4001 H   0  0  0  0  0  0  0  0  0  0  0  0
    2.8318  -20.5677   19.8322 H   0  0  0  0  0  0  0  0  0  0  0  0
    3.6849  -20.8840   18.3797 H   0  0  0  0  0  0  0  0  0  0  0  0
    3.7687  -22.1428   19.5181 H   0  0  0  0  0  0  0  0  0  0  0  0
    4.0869  -21.8512   21.3539 H   0  0  0  0  0  0  0  0  0  0  0  0
    6.3784  -21.9102   21.9380 H   0  0  0  0  0  0  0  0  0  0  0  0
    5.3394  -21.4525   23.2793 H   0  0  0  0  0  0  0  0  0  0  0  0
    6.3330  -20.2351   22.5039 H   0  0  0  0  0  0  0  0  0  0  0  0
    3.3728  -18.9611   21.3519 H   0  0  0  0  0  0  0  0  0  0  0  0
    3.9908  -19.4130   22.9403 H   0  0  0  0  0  0  0  0  0  0  0  0
    1.3756  -19.7819   22.1423 H   0  0  0  0  0  0  0  0  0  0  0  0
   -0.5887  -20.6608   21.8786 H   0  0  0  0  0  0  0  0  0  0  0  0
   -3.3761  -21.9233   24.6524 H   0  0  0  0  0  0  0  0  0  0  0  0
    0.6182  -22.3578   25.6060 H   0  0  0  0  0  0  0  0  0  0  0  0
  1  2  1  0
  2  3  2  0
  3  4  1  0
  4  5  2  0
  5  6  1  0
  6  7  2  0
  6  8  1  0
  8  9  1  0
  8 10  1  0
 10 11  1  0
 10 12  1  0
 12 13  1  0
 13 14  1  0
 14 15  2  0
 14 16  1  0
 16 17  2  0
 17 18  1  0
 18 19  2  0
 19 20  1  0
 20 21  2  0
  5 22  1  0
 22  2  1  0
 21 16  1  0
  1 23  1  0
  1 24  1  0
  1 25  1  0
  3 26  1  0
  4 27  1  0
  9 28  1  0
  9 29  1  0
  9 30  1  0
 10 31  1  0
 11 32  1  0
 11 33  1  0
 11 34  1  0
 12 35  1  0
 12 36  1  0
 13 37  1  0
 17 38  1  0
 19 39  1  0
 21 40  1  0
M  END
>  <Energy>  (788) 
119.76004309277143

>  <compound_id>  (788) 
17534

>  <target_id>  (788) 
1

>  <reference_id>  (788) 
54

>  <inspiration_ids>  (788) 
[66, 54]

>  <energy_score>  (788) 
69.47937243012996

>  <distance_score>  (788) 
16.50869619776849

>  <path>  (788) 
/opt/xchem-fragalysis-2/maxwin/BulkDock/SCRATCH/511014/C17534-P54/C17534-P54.minimised.mol

>  <scratch_subdir>  (788) 
/opt/xchem-fragalysis-2/maxwin/BulkDock/SCRATCH/511014/C17534-P54

>  <fragmenstein_runtime>  (788) 
27.449029684066772

>  <fragmenstein_outcome>  (788) 
too moved

>  <fragmenstein_mode>  (788) 
expansion

>  <fragmenstein_error>  (788) 


$$$$
C17535-P66
     RDKit          3D

 43 44  0  0  0  0  0  0  0  0999 V2000
    7.2947   -6.1984   23.5628 C   0  0  0  0  0  0  0  0  0  0  0  0
    8.0124   -6.9439   22.4983 C   0  0  0  0  0  0  0  0  0  0  0  0
    9.5710   -7.5924   23.0382 S   0  0  0  0  0  0  0  0  0  0  0  0
   10.2332   -6.6746   21.7871 C   0  0  0  0  0  0  0  0  0  0  0  0
    9.2039   -6.4568   20.8948 C   0  0  0  0  0  0  0  0  0  0  0  0
    7.9217   -7.1970   21.1062 C   0  0  0  0  0  0  0  0  0  0  0  0
    6.9953   -7.1940   19.7891 C   0  0  0  0  0  0  0  0  0  0  0  0
    7.4693   -6.5229   19.0071 O   0  0  0  0  0  0  0  0  0  0  0  0
    5.2888   -7.8058   19.1718 N   0  0  0  0  0  0  0  0  0  0  0  0
    4.5691   -7.4464   18.0145 C   0  0  0  0  0  0  0  0  0  0  0  0
    4.7168   -9.5758   18.0666 C   0  0  0  0  0  0  0  0  0  0  0  0
    2.8532   -9.2581   17.9871 C   0  0  0  0  0  0  0  0  0  0  0  0
    3.8547  -11.6858   17.7860 C   0  0  0  0  0  0  0  0  0  0  0  0
    2.8547  -13.5617   18.2555 C   0  0  0  0  0  0  0  0  0  0  0  0
    2.3333  -15.0235   19.4685 N   0  0  0  0  0  0  0  0  0  0  0  0
    0.5737  -15.9557   19.8244 C   0  0  0  0  0  0  0  0  0  0  0  0
   -0.4799  -15.4922   19.2548 O   0  0  0  0  0  0  0  0  0  0  0  0
    0.1186  -17.4656   20.6731 C   0  0  0  0  0  0  0  0  0  0  0  0
   -1.2845  -17.6062   20.3575 C   0  0  0  0  0  0  0  0  0  0  0  0
   -2.2062  -18.6521   20.4414 N   0  0  0  0  0  0  0  0  0  0  0  0
   -1.7567  -19.7783   20.9441 C   0  0  0  0  0  0  0  0  0  0  0  0
   -0.5042  -19.9083   21.3122 N   0  0  0  0  0  0  0  0  0  0  0  0
    0.3519  -18.8214   21.0567 C   0  0  0  0  0  0  0  0  0  0  0  0
    7.4494   -5.1223   23.4367 H   0  0  0  0  0  0  0  0  0  0  0  0
    6.2351   -6.4208   23.6208 H   0  0  0  0  0  0  0  0  0  0  0  0
    7.6796   -6.4402   24.5618 H   0  0  0  0  0  0  0  0  0  0  0  0
   11.2672   -6.3604   21.7304 H   0  0  0  0  0  0  0  0  0  0  0  0
    9.3810   -5.8465   20.0318 H   0  0  0  0  0  0  0  0  0  0  0  0
    5.1653   -7.0814   17.1450 H   0  0  0  0  0  0  0  0  0  0  0  0
    4.7551   -6.3781   18.2399 H   0  0  0  0  0  0  0  0  0  0  0  0
    3.5252   -7.3763   17.9825 H   0  0  0  0  0  0  0  0  0  0  0  0
    5.5272  -10.2055   18.5863 H   0  0  0  0  0  0  0  0  0  0  0  0
    2.4994  -10.1247   17.5336 H   0  0  0  0  0  0  0  0  0  0  0  0
    2.2737   -9.1255   18.8863 H   0  0  0  0  0  0  0  0  0  0  0  0
    2.4623   -8.5016   17.3094 H   0  0  0  0  0  0  0  0  0  0  0  0
    4.7438  -12.1701   18.1262 H   0  0  0  0  0  0  0  0  0  0  0  0
    3.4294  -11.6027   16.7878 H   0  0  0  0  0  0  0  0  0  0  0  0
    2.0118  -13.9254   17.6243 H   0  0  0  0  0  0  0  0  0  0  0  0
    3.7892  -14.1424   18.1525 H   0  0  0  0  0  0  0  0  0  0  0  0
    3.0183  -15.4258   20.0279 H   0  0  0  0  0  0  0  0  0  0  0  0
   -1.8539  -16.7557   19.9748 H   0  0  0  0  0  0  0  0  0  0  0  0
   -2.4331  -20.6136   21.0579 H   0  0  0  0  0  0  0  0  0  0  0  0
    1.3343  -19.2905   21.1733 H   0  0  0  0  0  0  0  0  0  0  0  0
  1  2  1  0
  2  3  1  0
  3  4  1  0
  4  5  2  0
  5  6  1  0
  6  7  1  0
  7  8  2  0
  7  9  1  0
  9 10  1  0
  9 11  1  0
 11 12  1  0
 11 13  1  0
 13 14  1  0
 14 15  1  0
 15 16  1  0
 16 17  2  0
 16 18  1  0
 18 19  2  0
 19 20  1  0
 20 21  2  0
 21 22  1  0
 22 23  2  0
  6  2  2  0
 23 18  1  0
  1 24  1  0
  1 25  1  0
  1 26  1  0
  4 27  1  0
  5 28  1  0
 10 29  1  0
 10 30  1  0
 10 31  1  0
 11 32  1  0
 12 33  1  0
 12 34  1  0
 12 35  1  0
 13 36  1  0
 13 37  1  0
 14 38  1  0
 14 39  1  0
 15 40  1  0
 19 41  1  0
 21 42  1  0
 23 43  1  0
M  END
>  <Energy>  (789) 
1288.6792650362609

>  <compound_id>  (789) 
17535

>  <target_id>  (789) 
1

>  <reference_id>  (789) 
66

>  <inspiration_ids>  (789) 
[66, 54]

>  <energy_score>  (789) 
1245.5469573429477

>  <distance_score>  (789) 
12.240095331459198

>  <path>  (789) 
/opt/xchem-fragalysis-2/maxwin/BulkDock/SCRATCH/511014/C17535-P66/C17535-P66.minimised.mol

>  <scratch_subdir>  (789) 
/opt/xchem-fragalysis-2/maxwin/BulkDock/SCRATCH/511014/C17535-P66

>  <fragmenstein_runtime>  (789) 
34.62141227722168

>  <fragmenstein_outcome>  (789) 
too moved

>  <fragmenstein_mode>  (789) 
expansion

>  <fragmenstein_error>  (789) 


$$$$
C17535-P54
     RDKit          3D

 43 44  0  0  0  0  0  0  0  0999 V2000
    5.9633  -10.0818   16.9268 C   0  0  0  0  0  0  0  0  0  0  0  0
    6.6972   -8.7799   16.7231 C   0  0  0  0  0  0  0  0  0  0  0  0
    8.4313   -9.0111   17.3265 S   0  0  0  0  0  0  0  0  0  0  0  0
    8.6896   -7.5686   16.5039 C   0  0  0  0  0  0  0  0  0  0  0  0
    7.5338   -7.6010   15.7149 C   0  0  0  0  0  0  0  0  0  0  0  0
    6.2890   -7.0789   16.2952 C   0  0  0  0  0  0  0  0  0  0  0  0
    4.3249   -6.6802   16.5516 C   0  0  0  0  0  0  0  0  0  0  0  0
    3.7101   -6.5121   15.2945 O   0  0  0  0  0  0  0  0  0  0  0  0
    3.4953   -6.7538   18.5472 N   0  0  0  0  0  0  0  0  0  0  0  0
    2.2360   -6.5665   19.0570 C   0  0  0  0  0  0  0  0  0  0  0  0
    2.7626   -8.4605   19.7120 C   0  0  0  0  0  0  0  0  0  0  0  0
    0.9357   -8.3055   18.4591 C   0  0  0  0  0  0  0  0  0  0  0  0
    1.8813  -10.2687   20.0770 C   0  0  0  0  0  0  0  0  0  0  0  0
    0.9324  -11.0723   21.3109 C   0  0  0  0  0  0  0  0  0  0  0  0
   -0.3243  -12.5720   21.4180 N   0  0  0  0  0  0  0  0  0  0  0  0
   -1.7134  -13.0333   22.7214 C   0  0  0  0  0  0  0  0  0  0  0  0
   -1.8493  -12.1921   23.4717 O   0  0  0  0  0  0  0  0  0  0  0  0
   -2.7996  -14.5648   23.3398 C   0  0  0  0  0  0  0  0  0  0  0  0
   -2.2050  -15.8934   24.1986 C   0  0  0  0  0  0  0  0  0  0  0  0
   -2.0483  -16.9791   25.3183 N   0  0  0  0  0  0  0  0  0  0  0  0
   -2.6663  -16.6089   26.3604 C   0  0  0  0  0  0  0  0  0  0  0  0
   -3.0788  -15.3592   26.2443 N   0  0  0  0  0  0  0  0  0  0  0  0
   -2.7078  -14.6086   25.0894 C   0  0  0  0  0  0  0  0  0  0  0  0
    6.6157  -10.9396   16.7225 H   0  0  0  0  0  0  0  0  0  0  0  0
    5.6237  -10.1721   17.9557 H   0  0  0  0  0  0  0  0  0  0  0  0
    5.1209  -10.2135   16.2614 H   0  0  0  0  0  0  0  0  0  0  0  0
    9.3103   -6.8054   16.9467 H   0  0  0  0  0  0  0  0  0  0  0  0
    7.4181   -8.4200   14.9575 H   0  0  0  0  0  0  0  0  0  0  0  0
    2.6791   -5.7616   19.7415 H   0  0  0  0  0  0  0  0  0  0  0  0
    1.4749   -6.5840   19.8784 H   0  0  0  0  0  0  0  0  0  0  0  0
    1.4862   -6.7822   18.4440 H   0  0  0  0  0  0  0  0  0  0  0  0
    3.6185   -9.0998   19.2960 H   0  0  0  0  0  0  0  0  0  0  0  0
    0.1381   -7.4688   18.6827 H   0  0  0  0  0  0  0  0  0  0  0  0
    0.7094   -8.4995   17.3917 H   0  0  0  0  0  0  0  0  0  0  0  0
    0.0015   -9.0639   18.5784 H   0  0  0  0  0  0  0  0  0  0  0  0
    1.6933   -9.8503   21.0171 H   0  0  0  0  0  0  0  0  0  0  0  0
    2.6741  -10.9415   19.8681 H   0  0  0  0  0  0  0  0  0  0  0  0
    1.7850  -11.7870   21.4028 H   0  0  0  0  0  0  0  0  0  0  0  0
    1.0364  -10.7764   22.3644 H   0  0  0  0  0  0  0  0  0  0  0  0
   -0.3025  -13.3060   20.6879 H   0  0  0  0  0  0  0  0  0  0  0  0
   -1.0893  -15.7934   24.4163 H   0  0  0  0  0  0  0  0  0  0  0  0
   -2.8683  -17.2323   27.2098 H   0  0  0  0  0  0  0  0  0  0  0  0
   -2.4064  -13.6053   25.5188 H   0  0  0  0  0  0  0  0  0  0  0  0
  1  2  1  0
  2  3  1  0
  3  4  1  0
  4  5  2  0
  5  6  1  0
  6  7  1  0
  7  8  2  0
  7  9  1  0
  9 10  1  0
  9 11  1  0
 11 12  1  0
 11 13  1  0
 13 14  1  0
 14 15  1  0
 15 16  1  0
 16 17  2  0
 16 18  1  0
 18 19  2  0
 19 20  1  0
 20 21  2  0
 21 22  1  0
 22 23  2  0
  6  2  2  0
 23 18  1  0
  1 24  1  0
  1 25  1  0
  1 26  1  0
  4 27  1  0
  5 28  1  0
 10 29  1  0
 10 30  1  0
 10 31  1  0
 11 32  1  0
 12 33  1  0
 12 34  1  0
 12 35  1  0
 13 36  1  0
 13 37  1  0
 14 38  1  0
 14 39  1  0
 15 40  1  0
 19 41  1  0
 21 42  1  0
 23 43  1  0
M  END
>  <Energy>  (790) 
1906.7213431806069

>  <compound_id>  (790) 
17535

>  <target_id>  (790) 
1

>  <reference_id>  (790) 
54

>  <inspiration_ids>  (790) 
[66, 54]

>  <energy_score>  (790) 
1863.5890354873059

>  <distance_score>  (790) 
11.41359300629424

>  <path>  (790) 
/opt/xchem-fragalysis-2/maxwin/BulkDock/SCRATCH/511014/C17535-P54/C17535-P54.minimised.mol

>  <scratch_subdir>  (790) 
/opt/xchem-fragalysis-2/maxwin/BulkDock/SCRATCH/511014/C17535-P54

>  <fragmenstein_runtime>  (790) 
21.636786699295044

>  <fragmenstein_outcome>  (790) 
too moved

>  <fragmenstein_mode>  (790) 
expansion

>  <fragmenstein_error>  (790) 


$$$$
C17536-P66
     RDKit          3D

 34 35  0  0  0  0  0  0  0  0999 V2000
    0.9646   -5.1695   20.6508 C   0  0  0  0  0  0  0  0  0  0  0  0
   -0.0588   -6.1506   21.1044 C   0  0  0  0  0  0  0  0  0  0  0  0
   -0.5063   -7.2845   20.4709 C   0  0  0  0  0  0  0  0  0  0  0  0
   -1.5174   -7.9748   21.2302 C   0  0  0  0  0  0  0  0  0  0  0  0
   -1.8295   -7.3745   22.4473 C   0  0  0  0  0  0  0  0  0  0  0  0
   -2.6453   -7.8416   23.6449 C   0  0  0  0  0  0  0  0  0  0  0  0
   -2.4192   -7.2845   24.6813 O   0  0  0  0  0  0  0  0  0  0  0  0
   -3.5156   -8.9789   23.3474 N   0  0  0  0  0  0  0  0  0  0  0  0
   -4.2612   -9.8051   24.1920 N   0  0  0  0  0  0  0  0  0  0  0  0
   -5.6217  -10.3502   24.0523 C   0  0  0  0  0  0  0  0  0  0  0  0
   -6.4606  -10.1554   23.2159 O   0  0  0  0  0  0  0  0  0  0  0  0
   -5.8687  -11.4249   25.1829 C   0  0  0  0  0  0  0  0  0  0  0  0
   -6.8117  -12.6184   24.7975 C   0  0  0  0  0  0  0  0  0  0  0  0
   -6.8007  -13.7786   25.7718 C   0  0  0  0  0  0  0  0  0  0  0  0
   -5.9987  -14.8946   25.6053 C   0  0  0  0  0  0  0  0  0  0  0  0
   -5.9030  -15.9076   26.4927 N   0  0  0  0  0  0  0  0  0  0  0  0
   -6.6695  -15.7985   27.5881 C   0  0  0  0  0  0  0  0  0  0  0  0
   -7.5118  -14.7871   27.8474 N   0  0  0  0  0  0  0  0  0  0  0  0
   -7.5592  -13.8018   26.9260 C   0  0  0  0  0  0  0  0  0  0  0  0
   -0.8417   -5.9395   22.6097 S   0  0  0  0  0  0  0  0  0  0  0  0
    1.7709   -5.0768   21.3857 H   0  0  0  0  0  0  0  0  0  0  0  0
    1.4117   -5.4813   19.7010 H   0  0  0  0  0  0  0  0  0  0  0  0
    0.5142   -4.1828   20.5008 H   0  0  0  0  0  0  0  0  0  0  0  0
   -0.1271   -7.6381   19.5180 H   0  0  0  0  0  0  0  0  0  0  0  0
   -1.9307   -8.9173   20.8916 H   0  0  0  0  0  0  0  0  0  0  0  0
   -3.5294   -9.1338   22.3422 H   0  0  0  0  0  0  0  0  0  0  0  0
   -3.8019  -10.2536   24.9774 H   0  0  0  0  0  0  0  0  0  0  0  0
   -6.2806  -10.8962   26.0505 H   0  0  0  0  0  0  0  0  0  0  0  0
   -4.9032  -11.8489   25.4848 H   0  0  0  0  0  0  0  0  0  0  0  0
   -6.5383  -12.9882   23.8019 H   0  0  0  0  0  0  0  0  0  0  0  0
   -7.8378  -12.2425   24.6962 H   0  0  0  0  0  0  0  0  0  0  0  0
   -5.3637  -15.0021   24.7296 H   0  0  0  0  0  0  0  0  0  0  0  0
   -6.6076  -16.5937   28.3221 H   0  0  0  0  0  0  0  0  0  0  0  0
   -8.2389  -12.9890   27.1688 H   0  0  0  0  0  0  0  0  0  0  0  0
  1  2  1  0
  2  3  2  0
  3  4  1  0
  4  5  2  0
  5  6  1  0
  6  7  2  0
  6  8  1  0
  8  9  1  0
  9 10  1  0
 10 11  2  0
 10 12  1  0
 12 13  1  0
 13 14  1  0
 14 15  2  0
 15 16  1  0
 16 17  2  0
 17 18  1  0
 18 19  2  0
  5 20  1  0
 20  2  1  0
 19 14  1  0
  1 21  1  0
  1 22  1  0
  1 23  1  0
  3 24  1  0
  4 25  1  0
  8 26  1  0
  9 27  1  0
 12 28  1  0
 12 29  1  0
 13 30  1  0
 13 31  1  0
 15 32  1  0
 17 33  1  0
 19 34  1  0
M  END
>  <Energy>  (791) 
66.85733448811456

>  <compound_id>  (791) 
17536

>  <target_id>  (791) 
1

>  <reference_id>  (791) 
66

>  <inspiration_ids>  (791) 
[66, 54]

>  <energy_score>  (791) 
16.201218018570955

>  <distance_score>  (791) 
14.628484601824738

>  <path>  (791) 
/opt/xchem-fragalysis-2/maxwin/BulkDock/SCRATCH/511014/C17536-P66/C17536-P66.minimised.mol

>  <scratch_subdir>  (791) 
/opt/xchem-fragalysis-2/maxwin/BulkDock/SCRATCH/511014/C17536-P66

>  <fragmenstein_runtime>  (791) 
27.278813362121582

>  <fragmenstein_outcome>  (791) 
too moved

>  <fragmenstein_mode>  (791) 
expansion

>  <fragmenstein_error>  (791) 


$$$$
C17536-P54
     RDKit          3D

 34 35  0  0  0  0  0  0  0  0999 V2000
    4.6747  -10.8380   13.6426 C   0  0  0  0  0  0  0  0  0  0  0  0
    4.8563  -11.0338   15.1083 C   0  0  0  0  0  0  0  0  0  0  0  0
    5.7698  -10.4772   15.9353 C   0  0  0  0  0  0  0  0  0  0  0  0
    5.7488  -11.1894   17.1861 C   0  0  0  0  0  0  0  0  0  0  0  0
    4.5080  -11.5243   17.8717 C   0  0  0  0  0  0  0  0  0  0  0  0
    4.4236  -13.0475   18.6384 C   0  0  0  0  0  0  0  0  0  0  0  0
    4.9363  -14.1509   17.5958 O   0  0  0  0  0  0  0  0  0  0  0  0
    3.6175  -13.6409   20.5416 N   0  0  0  0  0  0  0  0  0  0  0  0
    3.1408  -15.5449   21.4682 N   0  0  0  0  0  0  0  0  0  0  0  0
    2.8017  -17.4354   20.7626 C   0  0  0  0  0  0  0  0  0  0  0  0
    2.9572  -17.8178   19.6118 O   0  0  0  0  0  0  0  0  0  0  0  0
    1.9340  -18.8248   21.7528 C   0  0  0  0  0  0  0  0  0  0  0  0
    0.3360  -20.1018   22.3389 C   0  0  0  0  0  0  0  0  0  0  0  0
   -0.8366  -20.9416   23.2300 C   0  0  0  0  0  0  0  0  0  0  0  0
   -0.6774  -22.0125   24.0961 C   0  0  0  0  0  0  0  0  0  0  0  0
   -1.6947  -22.5960   24.7876 N   0  0  0  0  0  0  0  0  0  0  0  0
   -2.9317  -22.1311   24.5388 C   0  0  0  0  0  0  0  0  0  0  0  0
   -3.2444  -21.1449   23.7064 N   0  0  0  0  0  0  0  0  0  0  0  0
   -2.1972  -20.6035   23.0570 C   0  0  0  0  0  0  0  0  0  0  0  0
    3.9439  -12.1897   15.9457 S   0  0  0  0  0  0  0  0  0  0  0  0
    4.1022  -11.6495   13.1815 H   0  0  0  0  0  0  0  0  0  0  0  0
    4.1478   -9.8981   13.4486 H   0  0  0  0  0  0  0  0  0  0  0  0
    5.6469  -10.7924   13.1403 H   0  0  0  0  0  0  0  0  0  0  0  0
    6.5966   -9.9355   15.5000 H   0  0  0  0  0  0  0  0  0  0  0  0
    6.6957  -11.4464   17.6410 H   0  0  0  0  0  0  0  0  0  0  0  0
    3.2720  -12.8093   21.0076 H   0  0  0  0  0  0  0  0  0  0  0  0
    3.0174  -15.5250   22.4567 H   0  0  0  0  0  0  0  0  0  0  0  0
    1.7061  -18.9765   20.6991 H   0  0  0  0  0  0  0  0  0  0  0  0
    1.1455  -18.2527   22.2977 H   0  0  0  0  0  0  0  0  0  0  0  0
   -0.3906  -19.3285   22.4811 H   0  0  0  0  0  0  0  0  0  0  0  0
    0.4321  -21.0720   21.7696 H   0  0  0  0  0  0  0  0  0  0  0  0
    0.2880  -22.4587   24.3059 H   0  0  0  0  0  0  0  0  0  0  0  0
   -3.7629  -22.5880   25.0432 H   0  0  0  0  0  0  0  0  0  0  0  0
   -2.4944  -19.8119   22.3781 H   0  0  0  0  0  0  0  0  0  0  0  0
  1  2  1  0
  2  3  2  0
  3  4  1  0
  4  5  2  0
  5  6  1  0
  6  7  2  0
  6  8  1  0
  8  9  1  0
  9 10  1  0
 10 11  2  0
 10 12  1  0
 12 13  1  0
 13 14  1  0
 14 15  2  0
 15 16  1  0
 16 17  2  0
 17 18  1  0
 18 19  2  0
  5 20  1  0
 20  2  1  0
 19 14  1  0
  1 21  1  0
  1 22  1  0
  1 23  1  0
  3 24  1  0
  4 25  1  0
  8 26  1  0
  9 27  1  0
 12 28  1  0
 12 29  1  0
 13 30  1  0
 13 31  1  0
 15 32  1  0
 17 33  1  0
 19 34  1  0
M  END
>  <Energy>  (792) 
1102.2701461182621

>  <compound_id>  (792) 
17536

>  <target_id>  (792) 
1

>  <reference_id>  (792) 
54

>  <inspiration_ids>  (792) 
[66, 54]

>  <energy_score>  (792) 
1051.6140296487195

>  <distance_score>  (792) 
12.613179033668633

>  <path>  (792) 
/opt/xchem-fragalysis-2/maxwin/BulkDock/SCRATCH/511014/C17536-P54/C17536-P54.minimised.mol

>  <scratch_subdir>  (792) 
/opt/xchem-fragalysis-2/maxwin/BulkDock/SCRATCH/511014/C17536-P54

>  <fragmenstein_runtime>  (792) 
12.398221731185913

>  <fragmenstein_outcome>  (792) 
too moved

>  <fragmenstein_mode>  (792) 
expansion

>  <fragmenstein_error>  (792) 


$$$$
C17538-P66
     RDKit          3D

 42 43  0  0  0  0  0  0  0  0999 V2000
   13.7004   -3.9711   16.4936 C   0  0  0  0  0  0  0  0  0  0  0  0
   12.2996   -4.1712   16.8286 C   0  0  0  0  0  0  0  0  0  0  0  0
   11.0714   -3.8708   16.4040 C   0  0  0  0  0  0  0  0  0  0  0  0
   10.8541   -5.0906   17.5133 C   0  0  0  0  0  0  0  0  0  0  0  0
    9.5761   -6.0774   18.5360 C   0  0  0  0  0  0  0  0  0  0  0  0
    7.3182   -6.6751   18.3085 C   0  0  0  0  0  0  0  0  0  0  0  0
    5.3741   -7.6508   17.7033 C   0  0  0  0  0  0  0  0  0  0  0  0
    4.3801   -9.7208   17.3600 C   0  0  0  0  0  0  0  0  0  0  0  0
    4.0268  -10.8022   15.3562 C   0  0  0  0  0  0  0  0  0  0  0  0
    4.5949  -10.3461   14.3710 O   0  0  0  0  0  0  0  0  0  0  0  0
    3.1333  -11.8621   15.4468 N   0  0  0  0  0  0  0  0  0  0  0  0
    2.3397  -12.9182   14.1493 C   0  0  0  0  0  0  0  0  0  0  0  0
    0.7918  -12.9031   13.3276 C   0  0  0  0  0  0  0  0  0  0  0  0
   -0.2863  -14.3579   13.4609 C   0  0  0  0  0  0  0  0  0  0  0  0
   -1.7427  -14.7001   14.0435 C   0  0  0  0  0  0  0  0  0  0  0  0
   -2.5369  -15.6378   13.3807 C   0  0  0  0  0  0  0  0  0  0  0  0
   -3.7394  -16.1532   13.7916 N   0  0  0  0  0  0  0  0  0  0  0  0
   -4.2008  -15.7146   14.9645 C   0  0  0  0  0  0  0  0  0  0  0  0
   -3.5784  -14.8221   15.7275 N   0  0  0  0  0  0  0  0  0  0  0  0
   -2.3509  -14.4079   15.2665 C   0  0  0  0  0  0  0  0  0  0  0  0
   11.0898   -5.6921   16.5792 S   0  0  0  0  0  0  0  0  0  0  0  0
   13.8179   -3.2161   15.7125 H   0  0  0  0  0  0  0  0  0  0  0  0
   14.2319   -3.5996   17.3763 H   0  0  0  0  0  0  0  0  0  0  0  0
   14.1927   -4.8962   16.1965 H   0  0  0  0  0  0  0  0  0  0  0  0
   10.5747   -3.2836   15.6388 H   0  0  0  0  0  0  0  0  0  0  0  0
   11.8970   -5.0531   18.4172 H   0  0  0  0  0  0  0  0  0  0  0  0
    6.6350   -5.7669   18.1013 H   0  0  0  0  0  0  0  0  0  0  0  0
    7.1577   -6.9371   19.3630 H   0  0  0  0  0  0  0  0  0  0  0  0
    5.2768   -6.9606   16.8311 H   0  0  0  0  0  0  0  0  0  0  0  0
    4.7254   -7.0792   18.3351 H   0  0  0  0  0  0  0  0  0  0  0  0
    3.3109   -9.5333   17.7090 H   0  0  0  0  0  0  0  0  0  0  0  0
    5.1368  -10.0635   18.1037 H   0  0  0  0  0  0  0  0  0  0  0  0
    2.9285  -12.0196   16.4146 H   0  0  0  0  0  0  0  0  0  0  0  0
    2.1887  -13.9129   14.5709 H   0  0  0  0  0  0  0  0  0  0  0  0
    3.0635  -12.8262   13.3298 H   0  0  0  0  0  0  0  0  0  0  0  0
    0.2377  -11.9648   13.4206 H   0  0  0  0  0  0  0  0  0  0  0  0
    1.0938  -12.9569   12.2708 H   0  0  0  0  0  0  0  0  0  0  0  0
   -0.4200  -14.5583   12.3860 H   0  0  0  0  0  0  0  0  0  0  0  0
    0.3874  -15.1473   13.8117 H   0  0  0  0  0  0  0  0  0  0  0  0
   -2.2041  -16.0584   12.4330 H   0  0  0  0  0  0  0  0  0  0  0  0
   -5.1467  -16.1086   15.3116 H   0  0  0  0  0  0  0  0  0  0  0  0
   -1.8520  -13.8783   16.0589 H   0  0  0  0  0  0  0  0  0  0  0  0
  1  2  1  0
  2  3  2  0
  3  4  1  0
  4  5  2  0
  5  6  1  0
  6  7  1  0
  7  8  1  0
  8  9  1  0
  9 10  2  0
  9 11  1  0
 11 12  1  0
 12 13  1  0
 13 14  1  0
 14 15  1  0
 15 16  2  0
 16 17  1  0
 17 18  2  0
 18 19  1  0
 19 20  2  0
  5 21  1  0
 21  2  1  0
 20 15  1  0
  1 22  1  0
  1 23  1  0
  1 24  1  0
  3 25  1  0
  4 26  1  0
  6 27  1  0
  6 28  1  0
  7 29  1  0
  7 30  1  0
  8 31  1  0
  8 32  1  0
 11 33  1  0
 12 34  1  0
 12 35  1  0
 13 36  1  0
 13 37  1  0
 14 38  1  0
 14 39  1  0
 16 40  1  0
 18 41  1  0
 20 42  1  0
M  END
>  <Energy>  (793) 
1598.8318189910394

>  <compound_id>  (793) 
17538

>  <target_id>  (793) 
1

>  <reference_id>  (793) 
66

>  <inspiration_ids>  (793) 
[66, 54]

>  <energy_score>  (793) 
1583.560821424544

>  <distance_score>  (793) 
13.86590784027953

>  <path>  (793) 
/opt/xchem-fragalysis-2/maxwin/BulkDock/SCRATCH/511014/C17538-P66/C17538-P66.minimised.mol

>  <scratch_subdir>  (793) 
/opt/xchem-fragalysis-2/maxwin/BulkDock/SCRATCH/511014/C17538-P66

>  <fragmenstein_runtime>  (793) 
34.05624222755432

>  <fragmenstein_outcome>  (793) 
too moved

>  <fragmenstein_mode>  (793) 
expansion

>  <fragmenstein_error>  (793) 


$$$$
C17538-P54
     RDKit          3D

 42 43  0  0  0  0  0  0  0  0999 V2000
   10.4352   -7.6497   20.5327 C   0  0  0  0  0  0  0  0  0  0  0  0
    9.1310   -8.0615   21.1232 C   0  0  0  0  0  0  0  0  0  0  0  0
    8.0642   -7.2701   21.4862 C   0  0  0  0  0  0  0  0  0  0  0  0
    6.9989   -8.0336   22.0618 C   0  0  0  0  0  0  0  0  0  0  0  0
    7.2729   -9.3905   22.1507 C   0  0  0  0  0  0  0  0  0  0  0  0
    6.5506  -10.5025   22.9528 C   0  0  0  0  0  0  0  0  0  0  0  0
    4.8881  -10.7197   22.8195 C   0  0  0  0  0  0  0  0  0  0  0  0
    3.2401  -11.8401   22.4764 C   0  0  0  0  0  0  0  0  0  0  0  0
    2.0353  -12.6600   21.1924 C   0  0  0  0  0  0  0  0  0  0  0  0
    2.6555  -13.2490   20.3826 O   0  0  0  0  0  0  0  0  0  0  0  0
    0.2502  -12.6622   21.3077 N   0  0  0  0  0  0  0  0  0  0  0  0
   -1.1209  -13.6895   20.2937 C   0  0  0  0  0  0  0  0  0  0  0  0
   -2.3924  -14.5351   18.8541 C   0  0  0  0  0  0  0  0  0  0  0  0
   -3.1381  -16.1666   18.7960 C   0  0  0  0  0  0  0  0  0  0  0  0
   -3.8913  -17.2784   17.9712 C   0  0  0  0  0  0  0  0  0  0  0  0
   -5.1756  -17.7829   18.3134 C   0  0  0  0  0  0  0  0  0  0  0  0
   -5.7203  -18.9783   17.9911 N   0  0  0  0  0  0  0  0  0  0  0  0
   -4.9322  -19.7579   17.2671 C   0  0  0  0  0  0  0  0  0  0  0  0
   -3.7185  -19.4127   16.8208 N   0  0  0  0  0  0  0  0  0  0  0  0
   -3.2361  -18.1890   17.1795 C   0  0  0  0  0  0  0  0  0  0  0  0
    8.8271   -9.7143   21.4677 S   0  0  0  0  0  0  0  0  0  0  0  0
   10.3550   -6.6602   20.0700 H   0  0  0  0  0  0  0  0  0  0  0  0
   11.2053   -7.6003   21.3093 H   0  0  0  0  0  0  0  0  0  0  0  0
   10.7660   -8.3504   19.7596 H   0  0  0  0  0  0  0  0  0  0  0  0
    8.0503   -6.1907   21.3932 H   0  0  0  0  0  0  0  0  0  0  0  0
    6.1095   -7.5783   22.4757 H   0  0  0  0  0  0  0  0  0  0  0  0
    7.1602  -11.4054   23.0340 H   0  0  0  0  0  0  0  0  0  0  0  0
    6.6648  -10.0787   23.9629 H   0  0  0  0  0  0  0  0  0  0  0  0
    4.7130  -10.4229   23.8609 H   0  0  0  0  0  0  0  0  0  0  0  0
    4.8349   -9.9708   22.0488 H   0  0  0  0  0  0  0  0  0  0  0  0
    2.8981  -11.1263   21.7064 H   0  0  0  0  0  0  0  0  0  0  0  0
    3.8644  -12.7457   22.4674 H   0  0  0  0  0  0  0  0  0  0  0  0
   -0.0396  -12.0908   22.1101 H   0  0  0  0  0  0  0  0  0  0  0  0
   -0.4967  -14.5808   20.0606 H   0  0  0  0  0  0  0  0  0  0  0  0
   -1.7686  -13.6481   21.1744 H   0  0  0  0  0  0  0  0  0  0  0  0
   -3.0174  -13.6889   18.7949 H   0  0  0  0  0  0  0  0  0  0  0  0
   -2.0372  -14.7074   17.8342 H   0  0  0  0  0  0  0  0  0  0  0  0
   -2.2906  -16.7507   19.1584 H   0  0  0  0  0  0  0  0  0  0  0  0
   -3.9133  -15.9623   19.5146 H   0  0  0  0  0  0  0  0  0  0  0  0
   -5.8549  -17.2674   18.9892 H   0  0  0  0  0  0  0  0  0  0  0  0
   -5.3007  -20.7405   16.9983 H   0  0  0  0  0  0  0  0  0  0  0  0
   -2.2219  -18.0148   16.8385 H   0  0  0  0  0  0  0  0  0  0  0  0
  1  2  1  0
  2  3  2  0
  3  4  1  0
  4  5  2  0
  5  6  1  0
  6  7  1  0
  7  8  1  0
  8  9  1  0
  9 10  2  0
  9 11  1  0
 11 12  1  0
 12 13  1  0
 13 14  1  0
 14 15  1  0
 15 16  2  0
 16 17  1  0
 17 18  2  0
 18 19  1  0
 19 20  2  0
  5 21  1  0
 21  2  1  0
 20 15  1  0
  1 22  1  0
  1 23  1  0
  1 24  1  0
  3 25  1  0
  4 26  1  0
  6 27  1  0
  6 28  1  0
  7 29  1  0
  7 30  1  0
  8 31  1  0
  8 32  1  0
 11 33  1  0
 12 34  1  0
 12 35  1  0
 13 36  1  0
 13 37  1  0
 14 38  1  0
 14 39  1  0
 16 40  1  0
 18 41  1  0
 20 42  1  0
M  END
>  <Energy>  (794) 
564.58516682145762

>  <compound_id>  (794) 
17538

>  <target_id>  (794) 
1

>  <reference_id>  (794) 
54

>  <inspiration_ids>  (794) 
[66, 54]

>  <energy_score>  (794) 
549.3141692549306

>  <distance_score>  (794) 
13.104677071811448

>  <path>  (794) 
/opt/xchem-fragalysis-2/maxwin/BulkDock/SCRATCH/511014/C17538-P54/C17538-P54.minimised.mol

>  <scratch_subdir>  (794) 
/opt/xchem-fragalysis-2/maxwin/BulkDock/SCRATCH/511014/C17538-P54

>  <fragmenstein_runtime>  (794) 
18.99576711654663

>  <fragmenstein_outcome>  (794) 
too moved

>  <fragmenstein_mode>  (794) 
expansion

>  <fragmenstein_error>  (794) 


$$$$
C17539-P112
     RDKit          3D

 39 41  0  0  0  0  0  0  0  0999 V2000
   -1.6121  -23.0363    9.4182 O   0  0  0  0  0  0  0  0  0  0  0  0
   -1.8149  -22.7931   10.5720 C   0  0  0  0  0  0  0  0  0  0  0  0
   -3.0690  -22.5747   11.2928 N   0  0  0  0  0  0  0  0  0  0  0  0
   -4.4590  -22.4868   10.8080 C   0  0  0  0  0  0  0  0  0  0  0  0
   -5.4172  -23.7018   10.8674 C   0  0  0  0  0  0  0  0  0  0  0  0
   -6.6000  -23.8144   11.9245 C   0  0  0  0  0  0  0  0  0  0  0  0
   -7.5640  -24.9957   11.5133 C   0  0  0  0  0  0  0  0  0  0  0  0
   -8.9718  -24.9700   12.1192 C   0  0  0  0  0  0  0  0  0  0  0  0
   -9.5500  -23.6750   12.0130 O   0  0  0  0  0  0  0  0  0  0  0  0
   -8.9427  -22.6991   12.8617 C   0  0  0  0  0  0  0  0  0  0  0  0
   -7.3996  -22.5071   12.5695 C   0  0  0  0  0  0  0  0  0  0  0  0
   -0.5764  -22.5659   11.4435 C   0  0  0  0  0  0  0  0  0  0  0  0
   -0.3117  -23.1538   12.6591 C   0  0  0  0  0  0  0  0  0  0  0  0
    1.1314  -22.4850   13.3421 S   0  0  0  0  0  0  0  0  0  0  0  0
    1.2850  -21.3237   12.0657 C   0  0  0  0  0  0  0  0  0  0  0  0
    2.2871  -20.2362   12.0555 C   0  0  0  0  0  0  0  0  0  0  0  0
    3.3878  -19.9383   12.8580 C   0  0  0  0  0  0  0  0  0  0  0  0
    4.1126  -18.8518   12.3971 N   0  0  0  0  0  0  0  0  0  0  0  0
    3.4225  -18.4206   11.3663 C   0  0  0  0  0  0  0  0  0  0  0  0
    2.3029  -19.1895   11.1466 N   0  0  0  0  0  0  0  0  0  0  0  0
    0.3987  -21.5474   11.1026 N   0  0  0  0  0  0  0  0  0  0  0  0
   -2.8606  -22.3093   12.2498 H   0  0  0  0  0  0  0  0  0  0  0  0
   -4.3551  -22.2173    9.7494 H   0  0  0  0  0  0  0  0  0  0  0  0
   -4.9085  -21.6163   11.2952 H   0  0  0  0  0  0  0  0  0  0  0  0
   -5.8663  -23.7785    9.8687 H   0  0  0  0  0  0  0  0  0  0  0  0
   -4.8049  -24.6108   10.9549 H   0  0  0  0  0  0  0  0  0  0  0  0
   -6.0148  -24.2494   12.7151 H   0  0  0  0  0  0  0  0  0  0  0  0
   -7.0862  -25.9561   11.7443 H   0  0  0  0  0  0  0  0  0  0  0  0
   -7.6768  -24.9964   10.4216 H   0  0  0  0  0  0  0  0  0  0  0  0
   -9.6095  -25.6594   11.5550 H   0  0  0  0  0  0  0  0  0  0  0  0
   -9.0042  -25.3076   13.1575 H   0  0  0  0  0  0  0  0  0  0  0  0
   -9.1615  -22.9394   13.9076 H   0  0  0  0  0  0  0  0  0  0  0  0
   -9.4584  -21.7595   12.6591 H   0  0  0  0  0  0  0  0  0  0  0  0
   -7.0096  -22.1531   13.5033 H   0  0  0  0  0  0  0  0  0  0  0  0
   -7.2023  -21.5644   12.0508 H   0  0  0  0  0  0  0  0  0  0  0  0
   -0.8591  -23.9335   13.1679 H   0  0  0  0  0  0  0  0  0  0  0  0
    3.7211  -20.4835   13.7310 H   0  0  0  0  0  0  0  0  0  0  0  0
    3.6519  -17.5589   10.7564 H   0  0  0  0  0  0  0  0  0  0  0  0
    1.6057  -19.0411   10.4282 H   0  0  0  0  0  0  0  0  0  0  0  0
  1  2  2  0
  2  3  1  0
  3  4  1  0
  4  5  1  0
  5  6  1  0
  6  7  1  0
  7  8  1  0
  8  9  1  0
  9 10  1  0
 10 11  1  0
  2 12  1  0
 12 13  2  0
 13 14  1  0
 14 15  1  0
 15 16  1  0
 16 17  2  0
 17 18  1  0
 18 19  2  0
 19 20  1  0
 15 21  2  0
 11  6  1  0
 21 12  1  0
 20 16  1  0
  3 22  1  0
  4 23  1  0
  4 24  1  0
  5 25  1  0
  5 26  1  0
  6 27  1  0
  7 28  1  0
  7 29  1  0
  8 30  1  0
  8 31  1  0
 10 32  1  0
 10 33  1  0
 11 34  1  0
 11 35  1  0
 13 36  1  0
 17 37  1  0
 19 38  1  0
 20 39  1  0
M  END
>  <Energy>  (795) 
70.801305046002909

>  <compound_id>  (795) 
17539

>  <target_id>  (795) 
1

>  <reference_id>  (795) 
112

>  <inspiration_ids>  (795) 
[112, 80]

>  <energy_score>  (795) 
-34.36977377380052

>  <distance_score>  (795) 
13.172606560688529

>  <path>  (795) 
/opt/xchem-fragalysis-2/maxwin/BulkDock/SCRATCH/511014/C17539-P112/C17539-P112.minimised.mol

>  <scratch_subdir>  (795) 
/opt/xchem-fragalysis-2/maxwin/BulkDock/SCRATCH/511014/C17539-P112

>  <fragmenstein_runtime>  (795) 
17.10875630378723

>  <fragmenstein_outcome>  (795) 
too moved

>  <fragmenstein_mode>  (795) 
expansion

>  <fragmenstein_error>  (795) 


$$$$
C17539-P80
     RDKit          3D

 39 41  0  0  0  0  0  0  0  0999 V2000
    0.0893  -19.0833    5.7677 O   0  0  0  0  0  0  0  0  0  0  0  0
   -0.1297  -19.1138    6.9451 C   0  0  0  0  0  0  0  0  0  0  0  0
   -1.1135  -19.8760    7.7094 N   0  0  0  0  0  0  0  0  0  0  0  0
   -2.0764  -20.9151    7.2864 C   0  0  0  0  0  0  0  0  0  0  0  0
   -2.8578  -21.5799    8.4751 C   0  0  0  0  0  0  0  0  0  0  0  0
   -3.5347  -22.9680    8.2213 C   0  0  0  0  0  0  0  0  0  0  0  0
   -4.7062  -22.9225    7.2362 C   0  0  0  0  0  0  0  0  0  0  0  0
   -5.4979  -24.2348    7.1969 C   0  0  0  0  0  0  0  0  0  0  0  0
   -5.9371  -24.6569    8.4872 O   0  0  0  0  0  0  0  0  0  0  0  0
   -4.8407  -24.8547    9.3762 C   0  0  0  0  0  0  0  0  0  0  0  0
   -3.9930  -23.5966    9.5560 C   0  0  0  0  0  0  0  0  0  0  0  0
    0.8225  -18.3109    7.8469 C   0  0  0  0  0  0  0  0  0  0  0  0
    1.2379  -18.7868    9.0792 C   0  0  0  0  0  0  0  0  0  0  0  0
    2.4063  -17.7646    9.7836 S   0  0  0  0  0  0  0  0  0  0  0  0
    2.3988  -16.7238    8.3981 C   0  0  0  0  0  0  0  0  0  0  0  0
    3.2829  -15.5476    8.3534 C   0  0  0  0  0  0  0  0  0  0  0  0
    4.5402  -15.2966    8.8980 C   0  0  0  0  0  0  0  0  0  0  0  0
    4.9269  -13.9781    8.7576 N   0  0  0  0  0  0  0  0  0  0  0  0
    3.9638  -13.4318    8.0543 C   0  0  0  0  0  0  0  0  0  0  0  0
    2.9898  -14.3488    7.7345 N   0  0  0  0  0  0  0  0  0  0  0  0
    1.5131  -17.0919    7.4734 N   0  0  0  0  0  0  0  0  0  0  0  0
   -1.0716  -19.5892    8.6851 H   0  0  0  0  0  0  0  0  0  0  0  0
   -2.7727  -20.4529    6.5796 H   0  0  0  0  0  0  0  0  0  0  0  0
   -1.4997  -21.6699    6.7420 H   0  0  0  0  0  0  0  0  0  0  0  0
   -2.1320  -21.7294    9.2837 H   0  0  0  0  0  0  0  0  0  0  0  0
   -3.5979  -20.8638    8.8532 H   0  0  0  0  0  0  0  0  0  0  0  0
   -2.7707  -23.6337    7.7968 H   0  0  0  0  0  0  0  0  0  0  0  0
   -4.3394  -22.6902    6.2297 H   0  0  0  0  0  0  0  0  0  0  0  0
   -5.3651  -22.1045    7.5188 H   0  0  0  0  0  0  0  0  0  0  0  0
   -6.3859  -24.1073    6.5693 H   0  0  0  0  0  0  0  0  0  0  0  0
   -4.8950  -25.0331    6.7476 H   0  0  0  0  0  0  0  0  0  0  0  0
   -4.2252  -25.6811    9.0011 H   0  0  0  0  0  0  0  0  0  0  0  0
   -5.2471  -25.1671   10.3438 H   0  0  0  0  0  0  0  0  0  0  0  0
   -3.1163  -23.8398   10.1686 H   0  0  0  0  0  0  0  0  0  0  0  0
   -4.5582  -22.8581   10.1212 H   0  0  0  0  0  0  0  0  0  0  0  0
    0.9449  -19.6931    9.5868 H   0  0  0  0  0  0  0  0  0  0  0  0
    5.1680  -15.9973    9.4347 H   0  0  0  0  0  0  0  0  0  0  0  0
    3.9096  -12.4010    7.7311 H   0  0  0  0  0  0  0  0  0  0  0  0
    2.1475  -14.1642    7.2049 H   0  0  0  0  0  0  0  0  0  0  0  0
  1  2  2  0
  2  3  1  0
  3  4  1  0
  4  5  1  0
  5  6  1  0
  6  7  1  0
  7  8  1  0
  8  9  1  0
  9 10  1  0
 10 11  1  0
  2 12  1  0
 12 13  2  0
 13 14  1  0
 14 15  1  0
 15 16  1  0
 16 17  2  0
 17 18  1  0
 18 19  2  0
 19 20  1  0
 15 21  2  0
 11  6  1  0
 21 12  1  0
 20 16  1  0
  3 22  1  0
  4 23  1  0
  4 24  1  0
  5 25  1  0
  5 26  1  0
  6 27  1  0
  7 28  1  0
  7 29  1  0
  8 30  1  0
  8 31  1  0
 10 32  1  0
 10 33  1  0
 11 34  1  0
 11 35  1  0
 13 36  1  0
 17 37  1  0
 19 38  1  0
 20 39  1  0
M  END
>  <Energy>  (796) 
39.391932083627893

>  <compound_id>  (796) 
17539

>  <target_id>  (796) 
1

>  <reference_id>  (796) 
80

>  <inspiration_ids>  (796) 
[112, 80]

>  <energy_score>  (796) 
-65.7791467361746

>  <distance_score>  (796) 
13.931422412980224

>  <path>  (796) 
/opt/xchem-fragalysis-2/maxwin/BulkDock/SCRATCH/511014/C17539-P80/C17539-P80.minimised.mol

>  <scratch_subdir>  (796) 
/opt/xchem-fragalysis-2/maxwin/BulkDock/SCRATCH/511014/C17539-P80

>  <fragmenstein_runtime>  (796) 
16.474120616912842

>  <fragmenstein_outcome>  (796) 
too moved

>  <fragmenstein_mode>  (796) 
expansion

>  <fragmenstein_error>  (796) 


$$$$
C17541-P112
     RDKit          3D

 37 39  0  0  0  0  0  0  0  0999 V2000
   -4.2693  -13.5169   13.4507 O   0  0  0  0  0  0  0  0  0  0  0  0
   -3.4387  -14.2227   13.9571 C   0  0  0  0  0  0  0  0  0  0  0  0
   -3.6815  -15.4253   14.8736 N   0  0  0  0  0  0  0  0  0  0  0  0
   -4.8593  -16.0588   15.2755 C   0  0  0  0  0  0  0  0  0  0  0  0
   -4.8612  -16.8230   16.4858 C   0  0  0  0  0  0  0  0  0  0  0  0
   -6.0505  -17.3078   16.8114 N   0  0  0  0  0  0  0  0  0  0  0  0
   -6.8650  -16.9214   15.7838 O   0  0  0  0  0  0  0  0  0  0  0  0
   -6.1530  -16.2670   14.7949 C   0  0  0  0  0  0  0  0  0  0  0  0
   -7.0128  -16.2002   13.5665 C   0  0  0  0  0  0  0  0  0  0  0  0
   -7.7700  -14.9299   13.2441 C   0  0  0  0  0  0  0  0  0  0  0  0
   -8.8917  -15.2962   12.2541 C   0  0  0  0  0  0  0  0  0  0  0  0
   -8.3837  -15.9404   11.0845 O   0  0  0  0  0  0  0  0  0  0  0  0
   -7.6198  -17.1163   11.3455 C   0  0  0  0  0  0  0  0  0  0  0  0
   -6.4514  -16.8297   12.2985 C   0  0  0  0  0  0  0  0  0  0  0  0
   -1.2985  -13.7601   13.7264 C   0  0  0  0  0  0  0  0  0  0  0  0
   -0.8517  -14.5316   12.5637 F   0  0  0  0  0  0  0  0  0  0  0  0
   -0.3372  -12.6718   12.9978 C   0  0  0  0  0  0  0  0  0  0  0  0
   -0.4052  -11.4673   11.9344 C   0  0  0  0  0  0  0  0  0  0  0  0
   -1.3513  -10.7058   11.2034 C   0  0  0  0  0  0  0  0  0  0  0  0
   -0.8710   -9.5515   10.6185 N   0  0  0  0  0  0  0  0  0  0  0  0
    0.4091   -9.6378   10.7808 C   0  0  0  0  0  0  0  0  0  0  0  0
    0.7300  -10.7511   11.5242 N   0  0  0  0  0  0  0  0  0  0  0  0
   -2.8293  -15.8496   15.0599 H   0  0  0  0  0  0  0  0  0  0  0  0
   -4.0447  -16.9924   17.1714 H   0  0  0  0  0  0  0  0  0  0  0  0
   -7.8380  -16.8607   13.8406 H   0  0  0  0  0  0  0  0  0  0  0  0
   -7.0927  -14.1957   12.7925 H   0  0  0  0  0  0  0  0  0  0  0  0
   -8.2015  -14.4778   14.1439 H   0  0  0  0  0  0  0  0  0  0  0  0
   -9.6394  -15.9469   12.7230 H   0  0  0  0  0  0  0  0  0  0  0  0
   -9.4075  -14.3856   11.9332 H   0  0  0  0  0  0  0  0  0  0  0  0
   -8.2864  -17.8902   11.7397 H   0  0  0  0  0  0  0  0  0  0  0  0
   -7.2318  -17.4798   10.3884 H   0  0  0  0  0  0  0  0  0  0  0  0
   -5.8992  -17.7527   12.5047 H   0  0  0  0  0  0  0  0  0  0  0  0
   -5.7487  -16.1313   11.8271 H   0  0  0  0  0  0  0  0  0  0  0  0
    0.6428  -13.1219   12.8834 H   0  0  0  0  0  0  0  0  0  0  0  0
   -2.4098  -10.8913   11.0825 H   0  0  0  0  0  0  0  0  0  0  0  0
    1.1526   -8.9439   10.4116 H   0  0  0  0  0  0  0  0  0  0  0  0
    1.6557  -10.8059   11.8919 H   0  0  0  0  0  0  0  0  0  0  0  0
  1  2  2  0
  2  3  1  0
  3  4  1  0
  4  5  1  0
  5  6  2  0
  6  7  1  0
  7  8  1  0
  8  9  1  0
  9 10  1  0
 10 11  1  0
 11 12  1  0
 12 13  1  0
 13 14  1  0
  2 15  1  0
 15 16  1  0
 15 17  2  3
 17 18  1  0
 18 19  2  0
 19 20  1  0
 20 21  2  0
 21 22  1  0
  8  4  2  0
 14  9  1  0
 22 18  1  0
  3 23  1  0
  5 24  1  0
  9 25  1  0
 10 26  1  0
 10 27  1  0
 11 28  1  0
 11 29  1  0
 13 30  1  0
 13 31  1  0
 14 32  1  0
 14 33  1  0
 17 34  1  0
 19 35  1  0
 21 36  1  0
 22 37  1  0
M  END
>  <Energy>  (797) 
349.22328579537094

>  <compound_id>  (797) 
17541

>  <target_id>  (797) 
1

>  <reference_id>  (797) 
112

>  <inspiration_ids>  (797) 
[112, 80]

>  <energy_score>  (797) 
237.8948374642871

>  <distance_score>  (797) 
12.816928305718479

>  <path>  (797) 
/opt/xchem-fragalysis-2/maxwin/BulkDock/SCRATCH/511014/C17541-P112/C17541-P112.minimised.mol

>  <scratch_subdir>  (797) 
/opt/xchem-fragalysis-2/maxwin/BulkDock/SCRATCH/511014/C17541-P112

>  <fragmenstein_runtime>  (797) 
11.874669790267944

>  <fragmenstein_outcome>  (797) 
too moved

>  <fragmenstein_mode>  (797) 
expansion

>  <fragmenstein_error>  (797) 


$$$$
C17541-P80
     RDKit          3D

 37 39  0  0  0  0  0  0  0  0999 V2000
   -1.7299  -14.5466   16.3042 O   0  0  0  0  0  0  0  0  0  0  0  0
   -2.0979  -14.6282   15.1622 C   0  0  0  0  0  0  0  0  0  0  0  0
   -3.5550  -15.1118   14.6160 N   0  0  0  0  0  0  0  0  0  0  0  0
   -4.6591  -15.6223   15.2912 C   0  0  0  0  0  0  0  0  0  0  0  0
   -4.8433  -16.0405   16.6218 C   0  0  0  0  0  0  0  0  0  0  0  0
   -6.0170  -16.6538   16.8197 N   0  0  0  0  0  0  0  0  0  0  0  0
   -6.6630  -16.6115   15.5993 O   0  0  0  0  0  0  0  0  0  0  0  0
   -5.8791  -15.9620   14.6878 C   0  0  0  0  0  0  0  0  0  0  0  0
   -6.5221  -15.7236   13.3350 C   0  0  0  0  0  0  0  0  0  0  0  0
   -6.4875  -16.9341   12.3961 C   0  0  0  0  0  0  0  0  0  0  0  0
   -7.7849  -17.1098   11.5968 C   0  0  0  0  0  0  0  0  0  0  0  0
   -8.9850  -17.1035   12.3600 O   0  0  0  0  0  0  0  0  0  0  0  0
   -9.0305  -16.2003   13.4577 C   0  0  0  0  0  0  0  0  0  0  0  0
   -7.9432  -15.1389   13.4471 C   0  0  0  0  0  0  0  0  0  0  0  0
   -0.7658  -13.9243   13.7300 C   0  0  0  0  0  0  0  0  0  0  0  0
   -0.1996  -14.8689   12.9001 F   0  0  0  0  0  0  0  0  0  0  0  0
   -0.1906  -12.6891   13.2255 C   0  0  0  0  0  0  0  0  0  0  0  0
   -0.0353  -11.8048   11.9052 C   0  0  0  0  0  0  0  0  0  0  0  0
   -0.9689  -10.9788   11.1962 C   0  0  0  0  0  0  0  0  0  0  0  0
   -0.5040   -9.7816   10.6944 N   0  0  0  0  0  0  0  0  0  0  0  0
    0.7719   -9.8984   10.8242 C   0  0  0  0  0  0  0  0  0  0  0  0
    1.0886  -11.0309   11.5690 N   0  0  0  0  0  0  0  0  0  0  0  0
   -3.5888  -14.9935   13.6120 H   0  0  0  0  0  0  0  0  0  0  0  0
   -4.1626  -15.9490   17.4532 H   0  0  0  0  0  0  0  0  0  0  0  0
   -5.9151  -14.9350   12.8657 H   0  0  0  0  0  0  0  0  0  0  0  0
   -5.6630  -16.8050   11.6817 H   0  0  0  0  0  0  0  0  0  0  0  0
   -6.2193  -17.8380   12.9440 H   0  0  0  0  0  0  0  0  0  0  0  0
   -7.8642  -16.3116   10.8488 H   0  0  0  0  0  0  0  0  0  0  0  0
   -7.7518  -18.0521   11.0415 H   0  0  0  0  0  0  0  0  0  0  0  0
   -8.9841  -16.7693   14.3892 H   0  0  0  0  0  0  0  0  0  0  0  0
  -10.0148  -15.7204   13.4426 H   0  0  0  0  0  0  0  0  0  0  0  0
   -8.1105  -14.4987   12.5700 H   0  0  0  0  0  0  0  0  0  0  0  0
   -8.0393  -14.4900   14.3258 H   0  0  0  0  0  0  0  0  0  0  0  0
   -0.5940  -11.9600   13.8391 H   0  0  0  0  0  0  0  0  0  0  0  0
   -2.0250  -11.1231   11.0376 H   0  0  0  0  0  0  0  0  0  0  0  0
    1.5253   -9.2124   10.4562 H   0  0  0  0  0  0  0  0  0  0  0  0
    1.9821  -11.0071   12.0155 H   0  0  0  0  0  0  0  0  0  0  0  0
  1  2  2  0
  2  3  1  0
  3  4  1  0
  4  5  1  0
  5  6  2  0
  6  7  1  0
  7  8  1  0
  8  9  1  0
  9 10  1  0
 10 11  1  0
 11 12  1  0
 12 13  1  0
 13 14  1  0
  2 15  1  0
 15 16  1  0
 15 17  2  3
 17 18  1  0
 18 19  2  0
 19 20  1  0
 20 21  2  0
 21 22  1  0
  8  4  2  0
 14  9  1  0
 22 18  1  0
  3 23  1  0
  5 24  1  0
  9 25  1  0
 10 26  1  0
 10 27  1  0
 11 28  1  0
 11 29  1  0
 13 30  1  0
 13 31  1  0
 14 32  1  0
 14 33  1  0
 17 34  1  0
 19 35  1  0
 21 36  1  0
 22 37  1  0
M  END
>  <Energy>  (798) 
239.97424405710956

>  <compound_id>  (798) 
17541

>  <target_id>  (798) 
1

>  <reference_id>  (798) 
80

>  <inspiration_ids>  (798) 
[112, 80]

>  <energy_score>  (798) 
128.64579572604126

>  <distance_score>  (798) 
12.781770193399163

>  <path>  (798) 
/opt/xchem-fragalysis-2/maxwin/BulkDock/SCRATCH/511014/C17541-P80/C17541-P80.minimised.mol

>  <scratch_subdir>  (798) 
/opt/xchem-fragalysis-2/maxwin/BulkDock/SCRATCH/511014/C17541-P80

>  <fragmenstein_runtime>  (798) 
11.487095832824707

>  <fragmenstein_outcome>  (798) 
too moved

>  <fragmenstein_mode>  (798) 
expansion

>  <fragmenstein_error>  (798) 


$$$$
C17542-P112
     RDKit          3D

 46 47  0  0  0  0  0  0  0  0999 V2000
   -5.1196  -12.2048   13.5151 C   0  0  0  0  0  0  0  0  0  0  0  0
   -4.2888  -12.8965   12.4307 C   0  0  0  0  0  0  0  0  0  0  0  0
   -3.6232  -11.8917   11.4502 C   0  0  0  0  0  0  0  0  0  0  0  0
   -2.7361  -10.8172   12.1785 C   0  0  0  0  0  0  0  0  0  0  0  0
   -1.9629   -9.8288   11.4035 N   0  0  0  0  0  0  0  0  0  0  0  0
   -1.6002   -8.4334   11.7099 C   0  0  0  0  0  0  0  0  0  0  0  0
   -1.9128   -7.7285   12.6327 O   0  0  0  0  0  0  0  0  0  0  0  0
   -0.6279   -7.8441   10.6141 C   0  0  0  0  0  0  0  0  0  0  0  0
    0.0798   -6.5208   10.9653 C   0  0  0  0  0  0  0  0  0  0  0  0
    1.3787   -6.0549   10.7850 C   0  0  0  0  0  0  0  0  0  0  0  0
    1.5672   -4.8009   11.3181 N   0  0  0  0  0  0  0  0  0  0  0  0
    0.3953   -4.4643   11.7946 C   0  0  0  0  0  0  0  0  0  0  0  0
   -0.5318   -5.4558   11.5985 N   0  0  0  0  0  0  0  0  0  0  0  0
   -5.1495  -13.9050   11.7988 N   0  0  0  0  0  0  0  0  0  0  0  0
   -5.3172  -15.3168   12.0760 C   0  0  0  0  0  0  0  0  0  0  0  0
   -4.7382  -16.0366   12.8380 O   0  0  0  0  0  0  0  0  0  0  0  0
   -6.5338  -15.9035   11.2890 C   0  0  0  0  0  0  0  0  0  0  0  0
   -6.4392  -17.4415   11.1397 C   0  0  0  0  0  0  0  0  0  0  0  0
   -7.7312  -18.0645   10.6197 C   0  0  0  0  0  0  0  0  0  0  0  0
   -8.8348  -17.6828   11.4272 O   0  0  0  0  0  0  0  0  0  0  0  0
   -9.0422  -16.2766   11.4263 C   0  0  0  0  0  0  0  0  0  0  0  0
   -7.8407  -15.5588   12.0280 C   0  0  0  0  0  0  0  0  0  0  0  0
   -5.6093  -12.9430   14.1609 H   0  0  0  0  0  0  0  0  0  0  0  0
   -5.9064  -11.5861   13.0698 H   0  0  0  0  0  0  0  0  0  0  0  0
   -4.5066  -11.5715   14.1611 H   0  0  0  0  0  0  0  0  0  0  0  0
   -3.4920  -13.4579   12.9346 H   0  0  0  0  0  0  0  0  0  0  0  0
   -4.3912  -11.3757   10.8614 H   0  0  0  0  0  0  0  0  0  0  0  0
   -3.0015  -12.4413   10.7343 H   0  0  0  0  0  0  0  0  0  0  0  0
   -3.3523  -10.2283   12.8645 H   0  0  0  0  0  0  0  0  0  0  0  0
   -1.9909  -11.3447   12.7828 H   0  0  0  0  0  0  0  0  0  0  0  0
   -1.4493  -10.1331   10.5835 H   0  0  0  0  0  0  0  0  0  0  0  0
    0.1369   -8.5987   10.4066 H   0  0  0  0  0  0  0  0  0  0  0  0
   -1.2171   -7.6879    9.7032 H   0  0  0  0  0  0  0  0  0  0  0  0
    2.2187   -6.5604   10.3432 H   0  0  0  0  0  0  0  0  0  0  0  0
    0.1514   -3.5374   12.2955 H   0  0  0  0  0  0  0  0  0  0  0  0
   -1.4833   -5.4529   11.9435 H   0  0  0  0  0  0  0  0  0  0  0  0
   -5.8704  -13.6071   11.1523 H   0  0  0  0  0  0  0  0  0  0  0  0
   -6.5504  -15.4635   10.2837 H   0  0  0  0  0  0  0  0  0  0  0  0
   -6.2110  -17.8847   12.1153 H   0  0  0  0  0  0  0  0  0  0  0  0
   -5.6044  -17.7001   10.4780 H   0  0  0  0  0  0  0  0  0  0  0  0
   -7.6574  -19.1549   10.6552 H   0  0  0  0  0  0  0  0  0  0  0  0
   -7.9187  -17.7767    9.5788 H   0  0  0  0  0  0  0  0  0  0  0  0
   -9.9333  -16.0639   12.0248 H   0  0  0  0  0  0  0  0  0  0  0  0
   -9.2412  -15.9329   10.4045 H   0  0  0  0  0  0  0  0  0  0  0  0
   -8.0099  -14.4761   12.0180 H   0  0  0  0  0  0  0  0  0  0  0  0
   -7.7405  -15.8548   13.0808 H   0  0  0  0  0  0  0  0  0  0  0  0
  1  2  1  0
  2  3  1  0
  3  4  1  0
  4  5  1  0
  5  6  1  0
  6  7  2  0
  6  8  1  0
  8  9  1  0
  9 10  2  0
 10 11  1  0
 11 12  2  0
 12 13  1  0
  2 14  1  0
 14 15  1  0
 15 16  2  0
 15 17  1  0
 17 18  1  0
 18 19  1  0
 19 20  1  0
 20 21  1  0
 21 22  1  0
 13  9  1  0
 22 17  1  0
  1 23  1  0
  1 24  1  0
  1 25  1  0
  2 26  1  0
  3 27  1  0
  3 28  1  0
  4 29  1  0
  4 30  1  0
  5 31  1  0
  8 32  1  0
  8 33  1  0
 10 34  1  0
 12 35  1  0
 13 36  1  0
 14 37  1  0
 17 38  1  0
 18 39  1  0
 18 40  1  0
 19 41  1  0
 19 42  1  0
 21 43  1  0
 21 44  1  0
 22 45  1  0
 22 46  1  0
M  END
>  <Energy>  (799) 
9.2966209894069536

>  <compound_id>  (799) 
17542

>  <target_id>  (799) 
1

>  <reference_id>  (799) 
112

>  <inspiration_ids>  (799) 
[112, 80]

>  <energy_score>  (799) 
-13.703699920793303

>  <distance_score>  (799) 
13.505422770774517

>  <path>  (799) 
/opt/xchem-fragalysis-2/maxwin/BulkDock/SCRATCH/511014/C17542-P112/C17542-P112.minimised.mol

>  <scratch_subdir>  (799) 
/opt/xchem-fragalysis-2/maxwin/BulkDock/SCRATCH/511014/C17542-P112

>  <fragmenstein_runtime>  (799) 
24.778047800064087

>  <fragmenstein_outcome>  (799) 
too moved

>  <fragmenstein_mode>  (799) 
expansion

>  <fragmenstein_error>  (799) 


$$$$
C17542-P80
     RDKit          3D

 46 47  0  0  0  0  0  0  0  0999 V2000
   -5.5132  -28.4489   15.8332 C   0  0  0  0  0  0  0  0  0  0  0  0
   -6.8851  -27.8043   15.9905 C   0  0  0  0  0  0  0  0  0  0  0  0
   -6.8474  -26.2001   15.8414 C   0  0  0  0  0  0  0  0  0  0  0  0
   -6.8534  -24.5231   17.2578 C   0  0  0  0  0  0  0  0  0  0  0  0
   -5.9995  -22.6907   16.7605 N   0  0  0  0  0  0  0  0  0  0  0  0
   -5.0346  -21.8473   17.0531 C   0  0  0  0  0  0  0  0  0  0  0  0
   -4.1272  -22.6823   18.2385 O   0  0  0  0  0  0  0  0  0  0  0  0
   -4.3629  -20.3883   16.7485 C   0  0  0  0  0  0  0  0  0  0  0  0
   -3.1721  -19.6384   17.4213 C   0  0  0  0  0  0  0  0  0  0  0  0
   -2.0376  -19.9624   18.1487 C   0  0  0  0  0  0  0  0  0  0  0  0
   -1.2312  -18.8563   18.3979 N   0  0  0  0  0  0  0  0  0  0  0  0
   -1.8389  -17.8493   17.8238 C   0  0  0  0  0  0  0  0  0  0  0  0
   -2.9783  -18.2678   17.1923 N   0  0  0  0  0  0  0  0  0  0  0  0
   -7.8203  -28.2448   14.8889 N   0  0  0  0  0  0  0  0  0  0  0  0
   -9.2480  -28.0305   14.7093 C   0  0  0  0  0  0  0  0  0  0  0  0
  -10.0598  -27.5188   15.4311 O   0  0  0  0  0  0  0  0  0  0  0  0
   -9.7342  -28.4531   13.3109 C   0  0  0  0  0  0  0  0  0  0  0  0
  -11.2207  -28.8673   13.3434 C   0  0  0  0  0  0  0  0  0  0  0  0
  -12.1673  -27.6692   13.2389 C   0  0  0  0  0  0  0  0  0  0  0  0
  -11.9563  -26.8487   12.0923 O   0  0  0  0  0  0  0  0  0  0  0  0
  -10.7228  -27.0607   11.4172 C   0  0  0  0  0  0  0  0  0  0  0  0
   -9.5453  -27.2462   12.3686 C   0  0  0  0  0  0  0  0  0  0  0  0
   -5.5909  -29.5379   15.9219 H   0  0  0  0  0  0  0  0  0  0  0  0
   -4.8280  -28.0891   16.6071 H   0  0  0  0  0  0  0  0  0  0  0  0
   -5.0738  -28.2367   14.8525 H   0  0  0  0  0  0  0  0  0  0  0  0
   -7.3198  -28.1698   16.9024 H   0  0  0  0  0  0  0  0  0  0  0  0
   -7.8641  -26.1994   15.3940 H   0  0  0  0  0  0  0  0  0  0  0  0
   -6.0068  -26.2146   15.1211 H   0  0  0  0  0  0  0  0  0  0  0  0
   -6.1356  -25.4662   17.8390 H   0  0  0  0  0  0  0  0  0  0  0  0
   -7.8146  -24.3702   16.7830 H   0  0  0  0  0  0  0  0  0  0  0  0
   -6.8633  -23.0865   16.2178 H   0  0  0  0  0  0  0  0  0  0  0  0
   -5.2012  -19.6837   16.8083 H   0  0  0  0  0  0  0  0  0  0  0  0
   -3.9956  -20.4369   15.7139 H   0  0  0  0  0  0  0  0  0  0  0  0
   -1.7549  -20.9479   18.5016 H   0  0  0  0  0  0  0  0  0  0  0  0
   -1.5152  -16.8183   17.8323 H   0  0  0  0  0  0  0  0  0  0  0  0
   -3.5914  -17.6778   16.6498 H   0  0  0  0  0  0  0  0  0  0  0  0
   -7.4342  -28.6336   14.0369 H   0  0  0  0  0  0  0  0  0  0  0  0
   -9.1438  -29.3114   12.9696 H   0  0  0  0  0  0  0  0  0  0  0  0
  -11.4078  -29.5309   12.4891 H   0  0  0  0  0  0  0  0  0  0  0  0
  -11.4471  -29.4452   14.2470 H   0  0  0  0  0  0  0  0  0  0  0  0
  -13.2033  -28.0225   13.2003 H   0  0  0  0  0  0  0  0  0  0  0  0
  -12.0928  -27.0252   14.1203 H   0  0  0  0  0  0  0  0  0  0  0  0
  -10.5467  -26.1921   10.7740 H   0  0  0  0  0  0  0  0  0  0  0  0
  -10.8284  -27.9286   10.7557 H   0  0  0  0  0  0  0  0  0  0  0  0
   -8.6200  -27.3742   11.7948 H   0  0  0  0  0  0  0  0  0  0  0  0
   -9.4269  -26.3226   12.9500 H   0  0  0  0  0  0  0  0  0  0  0  0
  1  2  1  0
  2  3  1  0
  3  4  1  0
  4  5  1  0
  5  6  1  0
  6  7  2  0
  6  8  1  0
  8  9  1  0
  9 10  2  0
 10 11  1  0
 11 12  2  0
 12 13  1  0
  2 14  1  0
 14 15  1  0
 15 16  2  0
 15 17  1  0
 17 18  1  0
 18 19  1  0
 19 20  1  0
 20 21  1  0
 21 22  1  0
 13  9  1  0
 22 17  1  0
  1 23  1  0
  1 24  1  0
  1 25  1  0
  2 26  1  0
  3 27  1  0
  3 28  1  0
  4 29  1  0
  4 30  1  0
  5 31  1  0
  8 32  1  0
  8 33  1  0
 10 34  1  0
 12 35  1  0
 13 36  1  0
 14 37  1  0
 17 38  1  0
 18 39  1  0
 18 40  1  0
 19 41  1  0
 19 42  1  0
 21 43  1  0
 21 44  1  0
 22 45  1  0
 22 46  1  0
M  END
>  <Energy>  (800) 
515.94248267216403

>  <compound_id>  (800) 
17542

>  <target_id>  (800) 
1

>  <reference_id>  (800) 
80

>  <inspiration_ids>  (800) 
[112, 80]

>  <energy_score>  (800) 
492.94216176195295

>  <distance_score>  (800) 
13.273767174266462

>  <path>  (800) 
/opt/xchem-fragalysis-2/maxwin/BulkDock/SCRATCH/511014/C17542-P80/C17542-P80.minimised.mol

>  <scratch_subdir>  (800) 
/opt/xchem-fragalysis-2/maxwin/BulkDock/SCRATCH/511014/C17542-P80

>  <fragmenstein_runtime>  (800) 
24.584049701690674

>  <fragmenstein_outcome>  (800) 
too moved

>  <fragmenstein_mode>  (800) 
expansion

>  <fragmenstein_error>  (800) 


$$$$
C17544-P112
     RDKit          3D

 50 51  0  0  0  0  0  0  0  0999 V2000
   -4.8254  -14.5069   11.5903 C   0  0  0  0  0  0  0  0  0  0  0  0
   -5.2986  -14.6340   12.9096 N   0  0  0  0  0  0  0  0  0  0  0  0
   -3.7073  -15.2676   13.1551 C   0  0  0  0  0  0  0  0  0  0  0  0
   -2.2208  -15.5232   12.1782 C   0  0  0  0  0  0  0  0  0  0  0  0
   -1.8875  -16.9198   12.2410 O   0  0  0  0  0  0  0  0  0  0  0  0
   -0.5502  -14.5597   12.0065 C   0  0  0  0  0  0  0  0  0  0  0  0
   -0.7666  -12.8204   12.9661 N   0  0  0  0  0  0  0  0  0  0  0  0
   -0.2640  -13.7985   12.2469 C   0  0  0  0  0  0  0  0  0  0  0  0
   -0.4610  -11.2160   12.6224 C   0  0  0  0  0  0  0  0  0  0  0  0
    0.0752  -10.7174   11.7396 O   0  0  0  0  0  0  0  0  0  0  0  0
   -1.2352   -9.8345   13.8065 C   0  0  0  0  0  0  0  0  0  0  0  0
   -1.2111   -8.0489   13.7646 C   0  0  0  0  0  0  0  0  0  0  0  0
   -0.2528   -7.2145   14.9489 N   0  0  0  0  0  0  0  0  0  0  0  0
    0.0569   -8.1331   15.9304 C   0  0  0  0  0  0  0  0  0  0  0  0
   -0.9827   -9.5658   15.4317 N   0  0  0  0  0  0  0  0  0  0  0  0
   -6.2700  -15.5109   13.4642 C   0  0  0  0  0  0  0  0  0  0  0  0
   -6.8661  -16.4281   12.9669 O   0  0  0  0  0  0  0  0  0  0  0  0
   -6.6658  -15.1113   14.9086 C   0  0  0  0  0  0  0  0  0  0  0  0
   -8.1544  -15.5991   15.1604 C   0  0  0  0  0  0  0  0  0  0  0  0
   -8.5813  -15.7862   16.6216 C   0  0  0  0  0  0  0  0  0  0  0  0
  -10.1000  -16.0067   16.7530 C   0  0  0  0  0  0  0  0  0  0  0  0
  -10.6743  -16.5036   15.5518 O   0  0  0  0  0  0  0  0  0  0  0  0
  -10.5384  -15.5861   14.4606 C   0  0  0  0  0  0  0  0  0  0  0  0
   -9.2358  -14.7748   14.4671 C   0  0  0  0  0  0  0  0  0  0  0  0
   -4.2011  -15.1710   11.0387 H   0  0  0  0  0  0  0  0  0  0  0  0
   -5.7456  -14.7485   11.0230 H   0  0  0  0  0  0  0  0  0  0  0  0
   -4.8325  -13.4447   11.3790 H   0  0  0  0  0  0  0  0  0  0  0  0
   -3.9456  -16.2912   13.4811 H   0  0  0  0  0  0  0  0  0  0  0  0
   -3.4060  -14.8214   14.0996 H   0  0  0  0  0  0  0  0  0  0  0  0
   -2.5173  -15.4539   11.1338 H   0  0  0  0  0  0  0  0  0  0  0  0
   -2.1272  -17.3004   13.1044 H   0  0  0  0  0  0  0  0  0  0  0  0
   -0.8318  -14.6176   10.8391 H   0  0  0  0  0  0  0  0  0  0  0  0
    0.2264  -15.4791   12.1269 H   0  0  0  0  0  0  0  0  0  0  0  0
    0.5655  -13.6853   13.0881 H   0  0  0  0  0  0  0  0  0  0  0  0
    0.8906  -13.5755   11.7614 H   0  0  0  0  0  0  0  0  0  0  0  0
   -0.3213  -12.9582   11.3639 H   0  0  0  0  0  0  0  0  0  0  0  0
   -1.4869   -7.3381   12.9844 H   0  0  0  0  0  0  0  0  0  0  0  0
    0.4070   -8.1409   16.9542 H   0  0  0  0  0  0  0  0  0  0  0  0
   -1.9033   -9.2887   15.6714 H   0  0  0  0  0  0  0  0  0  0  0  0
   -5.9515  -15.5307   15.6179 H   0  0  0  0  0  0  0  0  0  0  0  0
   -6.6300  -14.0200   15.0047 H   0  0  0  0  0  0  0  0  0  0  0  0
   -8.2620  -16.5799   14.7027 H   0  0  0  0  0  0  0  0  0  0  0  0
   -8.0632  -16.6464   17.0554 H   0  0  0  0  0  0  0  0  0  0  0  0
   -8.2893  -14.9218   17.2296 H   0  0  0  0  0  0  0  0  0  0  0  0
  -10.6009  -15.0693   17.0246 H   0  0  0  0  0  0  0  0  0  0  0  0
  -10.3034  -16.7210   17.5572 H   0  0  0  0  0  0  0  0  0  0  0  0
  -11.4100  -14.9243   14.4322 H   0  0  0  0  0  0  0  0  0  0  0  0
  -10.5386  -16.1946   13.5560 H   0  0  0  0  0  0  0  0  0  0  0  0
   -8.9648  -14.5063   13.4405 H   0  0  0  0  0  0  0  0  0  0  0  0
   -9.3861  -13.8319   15.0076 H   0  0  0  0  0  0  0  0  0  0  0  0
  1  2  1  0
  2  3  1  0
  3  4  1  0
  4  5  1  0
  4  6  1  0
  6  7  1  0
  7  8  1  0
  7  9  1  0
  9 10  2  0
  9 11  1  0
 11 12  2  0
 12 13  1  0
 13 14  2  0
 14 15  1  0
  2 16  1  0
 16 17  2  0
 16 18  1  0
 18 19  1  0
 19 20  1  0
 20 21  1  0
 21 22  1  0
 22 23  1  0
 23 24  1  0
 15 11  1  0
 24 19  1  0
  1 25  1  0
  1 26  1  0
  1 27  1  0
  3 28  1  0
  3 29  1  0
  4 30  1  0
  5 31  1  0
  6 32  1  0
  6 33  1  0
  8 34  1  0
  8 35  1  0
  8 36  1  0
 12 37  1  0
 14 38  1  0
 15 39  1  0
 18 40  1  0
 18 41  1  0
 19 42  1  0
 20 43  1  0
 20 44  1  0
 21 45  1  0
 21 46  1  0
 23 47  1  0
 23 48  1  0
 24 49  1  0
 24 50  1  0
M  END
>  <Energy>  (801) 
1227.4216714500599

>  <compound_id>  (801) 
17544

>  <target_id>  (801) 
1

>  <reference_id>  (801) 
112

>  <inspiration_ids>  (801) 
[112, 80]

>  <energy_score>  (801) 
1177.6030114302575

>  <distance_score>  (801) 
13.00907667401772

>  <path>  (801) 
/opt/xchem-fragalysis-2/maxwin/BulkDock/SCRATCH/511014/C17544-P112/C17544-P112.minimised.mol

>  <scratch_subdir>  (801) 
/opt/xchem-fragalysis-2/maxwin/BulkDock/SCRATCH/511014/C17544-P112

>  <fragmenstein_runtime>  (801) 
22.742860317230225

>  <fragmenstein_outcome>  (801) 
too moved

>  <fragmenstein_mode>  (801) 
expansion

>  <fragmenstein_error>  (801) 


$$$$
C17544-P80
     RDKit          3D

 50 51  0  0  0  0  0  0  0  0999 V2000
   -9.3178  -21.7051   10.5705 C   0  0  0  0  0  0  0  0  0  0  0  0
   -9.3908  -22.8209   11.4906 N   0  0  0  0  0  0  0  0  0  0  0  0
   -8.3964  -21.8708   12.3534 C   0  0  0  0  0  0  0  0  0  0  0  0
   -6.9232  -20.6342   12.6453 C   0  0  0  0  0  0  0  0  0  0  0  0
   -7.5638  -19.5853   11.9219 O   0  0  0  0  0  0  0  0  0  0  0  0
   -4.9484  -20.1838   12.3810 C   0  0  0  0  0  0  0  0  0  0  0  0
   -3.6590  -18.7802   13.0420 N   0  0  0  0  0  0  0  0  0  0  0  0
   -4.1075  -19.8811   12.5171 C   0  0  0  0  0  0  0  0  0  0  0  0
   -2.1451  -18.7404   13.7869 C   0  0  0  0  0  0  0  0  0  0  0  0
   -1.3795  -19.5534   14.0413 O   0  0  0  0  0  0  0  0  0  0  0  0
   -2.0025  -17.3661   14.1761 C   0  0  0  0  0  0  0  0  0  0  0  0
   -1.6710  -16.7756   15.3821 C   0  0  0  0  0  0  0  0  0  0  0  0
   -2.1580  -15.4936   15.4178 N   0  0  0  0  0  0  0  0  0  0  0  0
   -2.7748  -15.3615   14.2685 C   0  0  0  0  0  0  0  0  0  0  0  0
   -2.3879  -16.3153   13.3910 N   0  0  0  0  0  0  0  0  0  0  0  0
   -8.8629  -24.1336   11.4022 C   0  0  0  0  0  0  0  0  0  0  0  0
   -8.1381  -24.6328   10.5811 O   0  0  0  0  0  0  0  0  0  0  0  0
   -9.4729  -24.9726   12.5403 C   0  0  0  0  0  0  0  0  0  0  0  0
  -10.9112  -25.4354   12.1589 C   0  0  0  0  0  0  0  0  0  0  0  0
  -11.3855  -26.6291   13.0064 C   0  0  0  0  0  0  0  0  0  0  0  0
  -12.2433  -26.1819   14.1819 C   0  0  0  0  0  0  0  0  0  0  0  0
  -13.4155  -25.4599   13.8033 O   0  0  0  0  0  0  0  0  0  0  0  0
  -13.3363  -24.8022   12.5407 C   0  0  0  0  0  0  0  0  0  0  0  0
  -11.9365  -24.2877   12.2416 C   0  0  0  0  0  0  0  0  0  0  0  0
  -10.3968  -21.7318   10.4113 H   0  0  0  0  0  0  0  0  0  0  0  0
   -9.1793  -21.9808    9.5283 H   0  0  0  0  0  0  0  0  0  0  0  0
   -9.2037  -20.6376   10.7827 H   0  0  0  0  0  0  0  0  0  0  0  0
   -9.2775  -21.2264   12.5617 H   0  0  0  0  0  0  0  0  0  0  0  0
   -8.3965  -22.3819   13.3078 H   0  0  0  0  0  0  0  0  0  0  0  0
   -6.9987  -20.9293   13.6592 H   0  0  0  0  0  0  0  0  0  0  0  0
   -7.0186  -19.5830   11.1230 H   0  0  0  0  0  0  0  0  0  0  0  0
   -4.8791  -20.3561   11.1353 H   0  0  0  0  0  0  0  0  0  0  0  0
   -5.6833  -19.1625   12.5123 H   0  0  0  0  0  0  0  0  0  0  0  0
   -3.5542  -19.4572   11.4884 H   0  0  0  0  0  0  0  0  0  0  0  0
   -3.5901  -20.6688   13.2858 H   0  0  0  0  0  0  0  0  0  0  0  0
   -2.9974  -20.2313   12.3538 H   0  0  0  0  0  0  0  0  0  0  0  0
   -1.2454  -17.2420   16.2616 H   0  0  0  0  0  0  0  0  0  0  0  0
   -3.5324  -14.6396   14.0063 H   0  0  0  0  0  0  0  0  0  0  0  0
   -2.7300  -16.4293   12.4520 H   0  0  0  0  0  0  0  0  0  0  0  0
   -9.5194  -24.4172   13.4797 H   0  0  0  0  0  0  0  0  0  0  0  0
   -8.8369  -25.8525   12.6749 H   0  0  0  0  0  0  0  0  0  0  0  0
  -10.8761  -25.7826   11.1165 H   0  0  0  0  0  0  0  0  0  0  0  0
  -11.9932  -27.2831   12.3672 H   0  0  0  0  0  0  0  0  0  0  0  0
  -10.5402  -27.2311   13.3572 H   0  0  0  0  0  0  0  0  0  0  0  0
  -12.5697  -27.0519   14.7610 H   0  0  0  0  0  0  0  0  0  0  0  0
  -11.6550  -25.5540   14.8591 H   0  0  0  0  0  0  0  0  0  0  0  0
  -14.0496  -23.9721   12.5579 H   0  0  0  0  0  0  0  0  0  0  0  0
  -13.6705  -25.4992   11.7637 H   0  0  0  0  0  0  0  0  0  0  0  0
  -11.9429  -23.7417   11.2939 H   0  0  0  0  0  0  0  0  0  0  0  0
  -11.6477  -23.5845   13.0305 H   0  0  0  0  0  0  0  0  0  0  0  0
  1  2  1  0
  2  3  1  0
  3  4  1  0
  4  5  1  0
  4  6  1  0
  6  7  1  0
  7  8  1  0
  7  9  1  0
  9 10  2  0
  9 11  1  0
 11 12  2  0
 12 13  1  0
 13 14  2  0
 14 15  1  0
  2 16  1  0
 16 17  2  0
 16 18  1  0
 18 19  1  0
 19 20  1  0
 20 21  1  0
 21 22  1  0
 22 23  1  0
 23 24  1  0
 15 11  1  0
 24 19  1  0
  1 25  1  0
  1 26  1  0
  1 27  1  0
  3 28  1  0
  3 29  1  0
  4 30  1  0
  5 31  1  0
  6 32  1  0
  6 33  1  0
  8 34  1  0
  8 35  1  0
  8 36  1  0
 12 37  1  0
 14 38  1  0
 15 39  1  0
 18 40  1  0
 18 41  1  0
 19 42  1  0
 20 43  1  0
 20 44  1  0
 21 45  1  0
 21 46  1  0
 23 47  1  0
 23 48  1  0
 24 49  1  0
 24 50  1  0
M  END
>  <Energy>  (802) 
1093.6058637083036

>  <compound_id>  (802) 
17544

>  <target_id>  (802) 
1

>  <reference_id>  (802) 
80

>  <inspiration_ids>  (802) 
[112, 80]

>  <energy_score>  (802) 
1043.7872036884871

>  <distance_score>  (802) 
11.937449247572294

>  <path>  (802) 
/opt/xchem-fragalysis-2/maxwin/BulkDock/SCRATCH/511014/C17544-P80/C17544-P80.minimised.mol

>  <scratch_subdir>  (802) 
/opt/xchem-fragalysis-2/maxwin/BulkDock/SCRATCH/511014/C17544-P80

>  <fragmenstein_runtime>  (802) 
25.602361917495728

>  <fragmenstein_outcome>  (802) 
too moved

>  <fragmenstein_mode>  (802) 
expansion

>  <fragmenstein_error>  (802) 


$$$$
C17550-P112
     RDKit          3D

 45 47  0  0  0  0  0  0  0  0999 V2000
   -2.7124   -8.3834   12.7010 C   0  0  0  0  0  0  0  0  0  0  0  0
   -2.5192   -9.0264   11.3185 C   0  0  0  0  0  0  0  0  0  0  0  0
   -1.0085   -9.3711   11.2057 C   0  0  0  0  0  0  0  0  0  0  0  0
   -2.7732   -7.9598   10.2474 C   0  0  0  0  0  0  0  0  0  0  0  0
   -3.3480  -10.2534   11.0866 O   0  0  0  0  0  0  0  0  0  0  0  0
   -4.8340  -10.2528   11.1479 C   0  0  0  0  0  0  0  0  0  0  0  0
   -5.7031  -11.6612   11.2665 C   0  0  0  0  0  0  0  0  0  0  0  0
   -5.2432  -12.8854   11.7320 N   0  0  0  0  0  0  0  0  0  0  0  0
   -6.3181  -13.6407   11.9332 C   0  0  0  0  0  0  0  0  0  0  0  0
   -6.2128  -14.8998   12.6040 C   0  0  0  0  0  0  0  0  0  0  0  0
   -6.9184  -15.5226   13.6139 C   0  0  0  0  0  0  0  0  0  0  0  0
   -6.3171  -16.6835   14.0104 N   0  0  0  0  0  0  0  0  0  0  0  0
   -5.1997  -16.7327   13.3322 C   0  0  0  0  0  0  0  0  0  0  0  0
   -5.0921  -15.6835   12.4686 N   0  0  0  0  0  0  0  0  0  0  0  0
   -7.4198  -12.9666   11.4549 N   0  0  0  0  0  0  0  0  0  0  0  0
   -8.8273  -13.3601   11.2582 C   0  0  0  0  0  0  0  0  0  0  0  0
   -9.0710  -14.0694    9.9171 C   0  0  0  0  0  0  0  0  0  0  0  0
  -10.4839  -14.6632    9.7690 C   0  0  0  0  0  0  0  0  0  0  0  0
  -10.9705  -15.2902   10.9553 O   0  0  0  0  0  0  0  0  0  0  0  0
  -10.9489  -14.3931   12.0602 C   0  0  0  0  0  0  0  0  0  0  0  0
   -9.4969  -14.1299   12.3967 C   0  0  0  0  0  0  0  0  0  0  0  0
   -7.0459  -11.6954   11.0728 N   0  0  0  0  0  0  0  0  0  0  0  0
   -3.7393   -8.0197   12.8158 H   0  0  0  0  0  0  0  0  0  0  0  0
   -2.5542   -9.0981   13.5051 H   0  0  0  0  0  0  0  0  0  0  0  0
   -2.0422   -7.5301   12.8521 H   0  0  0  0  0  0  0  0  0  0  0  0
   -0.7477   -9.5946   10.1723 H   0  0  0  0  0  0  0  0  0  0  0  0
   -0.3845   -8.5292   11.5142 H   0  0  0  0  0  0  0  0  0  0  0  0
   -0.7553  -10.2609   11.7813 H   0  0  0  0  0  0  0  0  0  0  0  0
   -3.8084   -7.6040   10.2965 H   0  0  0  0  0  0  0  0  0  0  0  0
   -2.6416   -8.3797    9.2436 H   0  0  0  0  0  0  0  0  0  0  0  0
   -2.1111   -7.0940   10.3553 H   0  0  0  0  0  0  0  0  0  0  0  0
   -5.1351   -9.6637   12.0203 H   0  0  0  0  0  0  0  0  0  0  0  0
   -5.1891   -9.7556   10.2386 H   0  0  0  0  0  0  0  0  0  0  0  0
   -7.7950  -15.1780   14.1425 H   0  0  0  0  0  0  0  0  0  0  0  0
   -4.4278  -17.4788   13.4548 H   0  0  0  0  0  0  0  0  0  0  0  0
   -4.2591  -15.4043   11.9644 H   0  0  0  0  0  0  0  0  0  0  0  0
   -9.3599  -12.3981   11.1998 H   0  0  0  0  0  0  0  0  0  0  0  0
   -8.8904  -13.3741    9.0870 H   0  0  0  0  0  0  0  0  0  0  0  0
   -8.3101  -14.8380    9.7983 H   0  0  0  0  0  0  0  0  0  0  0  0
  -11.1896  -13.8739    9.4825 H   0  0  0  0  0  0  0  0  0  0  0  0
  -10.4920  -15.4055    8.9642 H   0  0  0  0  0  0  0  0  0  0  0  0
  -11.5030  -13.4766   11.8259 H   0  0  0  0  0  0  0  0  0  0  0  0
  -11.4340  -14.8580   12.9184 H   0  0  0  0  0  0  0  0  0  0  0  0
   -9.4069  -13.5854   13.3419 H   0  0  0  0  0  0  0  0  0  0  0  0
   -9.0356  -15.1122   12.4857 H   0  0  0  0  0  0  0  0  0  0  0  0
  1  2  1  0
  2  3  1  0
  2  4  1  0
  2  5  1  0
  5  6  1  0
  6  7  1  0
  7  8  1  0
  8  9  2  0
  9 10  1  0
 10 11  2  0
 11 12  1  0
 12 13  2  0
 13 14  1  0
  9 15  1  0
 15 16  1  0
 16 17  1  0
 17 18  1  0
 18 19  1  0
 19 20  1  0
 20 21  1  0
 15 22  1  0
 22  7  2  0
 14 10  1  0
 21 16  1  0
  1 23  1  0
  1 24  1  0
  1 25  1  0
  3 26  1  0
  3 27  1  0
  3 28  1  0
  4 29  1  0
  4 30  1  0
  4 31  1  0
  6 32  1  0
  6 33  1  0
 11 34  1  0
 13 35  1  0
 14 36  1  0
 16 37  1  0
 17 38  1  0
 17 39  1  0
 18 40  1  0
 18 41  1  0
 20 42  1  0
 20 43  1  0
 21 44  1  0
 21 45  1  0
M  END
>  <Energy>  (803) 
81.252850754273524

>  <compound_id>  (803) 
17550

>  <target_id>  (803) 
1

>  <reference_id>  (803) 
112

>  <inspiration_ids>  (803) 
[112, 80]

>  <energy_score>  (803) 
-13.789469838119544

>  <distance_score>  (803) 
13.66118053875763

>  <path>  (803) 
/opt/xchem-fragalysis-2/maxwin/BulkDock/SCRATCH/511014/C17550-P112/C17550-P112.minimised.mol

>  <scratch_subdir>  (803) 
/opt/xchem-fragalysis-2/maxwin/BulkDock/SCRATCH/511014/C17550-P112

>  <fragmenstein_runtime>  (803) 
30.115428686141968

>  <fragmenstein_outcome>  (803) 
too moved

>  <fragmenstein_mode>  (803) 
expansion

>  <fragmenstein_error>  (803) 


$$$$
C17550-P80
     RDKit          3D

 45 47  0  0  0  0  0  0  0  0999 V2000
    4.4157  -14.5384    6.7356 C   0  0  0  0  0  0  0  0  0  0  0  0
    4.0103  -14.4901    8.2085 C   0  0  0  0  0  0  0  0  0  0  0  0
    3.6708  -13.0045    8.4865 C   0  0  0  0  0  0  0  0  0  0  0  0
    5.2557  -14.8892    9.0196 C   0  0  0  0  0  0  0  0  0  0  0  0
    2.7850  -15.2913    8.4698 O   0  0  0  0  0  0  0  0  0  0  0  0
    2.6915  -16.7324    8.1535 C   0  0  0  0  0  0  0  0  0  0  0  0
    1.2425  -17.4319    8.0902 C   0  0  0  0  0  0  0  0  0  0  0  0
    0.2367  -17.2778    9.0200 N   0  0  0  0  0  0  0  0  0  0  0  0
   -0.8377  -17.8283    8.4577 C   0  0  0  0  0  0  0  0  0  0  0  0
   -2.1295  -17.3649    8.8486 C   0  0  0  0  0  0  0  0  0  0  0  0
   -3.2861  -17.0410    8.1802 C   0  0  0  0  0  0  0  0  0  0  0  0
   -4.1501  -16.3078    8.9636 N   0  0  0  0  0  0  0  0  0  0  0  0
   -3.4625  -16.0479   10.0491 C   0  0  0  0  0  0  0  0  0  0  0  0
   -2.2796  -16.7262   10.0523 N   0  0  0  0  0  0  0  0  0  0  0  0
   -0.4361  -18.5835    7.3828 N   0  0  0  0  0  0  0  0  0  0  0  0
   -1.1153  -19.5927    6.5552 C   0  0  0  0  0  0  0  0  0  0  0  0
   -1.8839  -19.0658    5.3424 C   0  0  0  0  0  0  0  0  0  0  0  0
   -2.5394  -20.2098    4.5557 C   0  0  0  0  0  0  0  0  0  0  0  0
   -3.3360  -21.0675    5.3642 O   0  0  0  0  0  0  0  0  0  0  0  0
   -2.5964  -21.6547    6.4258 C   0  0  0  0  0  0  0  0  0  0  0  0
   -1.9477  -20.6054    7.3266 C   0  0  0  0  0  0  0  0  0  0  0  0
    0.8908  -18.3204    7.1283 N   0  0  0  0  0  0  0  0  0  0  0  0
    3.5532  -14.3404    6.0886 H   0  0  0  0  0  0  0  0  0  0  0  0
    5.2026  -13.8154    6.4925 H   0  0  0  0  0  0  0  0  0  0  0  0
    4.7863  -15.5317    6.4592 H   0  0  0  0  0  0  0  0  0  0  0  0
    2.8788  -12.6754    7.8047 H   0  0  0  0  0  0  0  0  0  0  0  0
    3.2789  -12.8749    9.4972 H   0  0  0  0  0  0  0  0  0  0  0  0
    4.5269  -12.3456    8.3134 H   0  0  0  0  0  0  0  0  0  0  0  0
    5.2152  -14.5643   10.0516 H   0  0  0  0  0  0  0  0  0  0  0  0
    5.3791  -15.9769    9.0248 H   0  0  0  0  0  0  0  0  0  0  0  0
    6.1670  -14.4466    8.6005 H   0  0  0  0  0  0  0  0  0  0  0  0
    3.2661  -17.2685    8.9161 H   0  0  0  0  0  0  0  0  0  0  0  0
    3.1548  -16.8997    7.1765 H   0  0  0  0  0  0  0  0  0  0  0  0
   -3.5087  -17.1869    7.1379 H   0  0  0  0  0  0  0  0  0  0  0  0
   -3.7538  -15.3835   10.8527 H   0  0  0  0  0  0  0  0  0  0  0  0
   -1.4997  -16.5495   10.6690 H   0  0  0  0  0  0  0  0  0  0  0  0
   -0.2784  -20.1754    6.1368 H   0  0  0  0  0  0  0  0  0  0  0  0
   -1.2033  -18.5178    4.6790 H   0  0  0  0  0  0  0  0  0  0  0  0
   -2.6400  -18.3431    5.6438 H   0  0  0  0  0  0  0  0  0  0  0  0
   -1.7737  -20.8113    4.0510 H   0  0  0  0  0  0  0  0  0  0  0  0
   -3.1848  -19.7923    3.7760 H   0  0  0  0  0  0  0  0  0  0  0  0
   -1.8350  -22.3201    6.0017 H   0  0  0  0  0  0  0  0  0  0  0  0
   -3.2905  -22.2774    6.9913 H   0  0  0  0  0  0  0  0  0  0  0  0
   -1.2694  -21.1035    8.0210 H   0  0  0  0  0  0  0  0  0  0  0  0
   -2.7207  -20.0819    7.8892 H   0  0  0  0  0  0  0  0  0  0  0  0
  1  2  1  0
  2  3  1  0
  2  4  1  0
  2  5  1  0
  5  6  1  0
  6  7  1  0
  7  8  1  0
  8  9  2  0
  9 10  1  0
 10 11  2  0
 11 12  1  0
 12 13  2  0
 13 14  1  0
  9 15  1  0
 15 16  1  0
 16 17  1  0
 17 18  1  0
 18 19  1  0
 19 20  1  0
 20 21  1  0
 15 22  1  0
 22  7  2  0
 14 10  1  0
 21 16  1  0
  1 23  1  0
  1 24  1  0
  1 25  1  0
  3 26  1  0
  3 27  1  0
  3 28  1  0
  4 29  1  0
  4 30  1  0
  4 31  1  0
  6 32  1  0
  6 33  1  0
 11 34  1  0
 13 35  1  0
 14 36  1  0
 16 37  1  0
 17 38  1  0
 17 39  1  0
 18 40  1  0
 18 41  1  0
 20 42  1  0
 20 43  1  0
 21 44  1  0
 21 45  1  0
M  END
>  <Energy>  (804) 
76.493325997520373

>  <compound_id>  (804) 
17550

>  <target_id>  (804) 
1

>  <reference_id>  (804) 
80

>  <inspiration_ids>  (804) 
[112, 80]

>  <energy_score>  (804) 
-18.548994594870464

>  <distance_score>  (804) 
15.033862364548519

>  <path>  (804) 
/opt/xchem-fragalysis-2/maxwin/BulkDock/SCRATCH/511014/C17550-P80/C17550-P80.minimised.mol

>  <scratch_subdir>  (804) 
/opt/xchem-fragalysis-2/maxwin/BulkDock/SCRATCH/511014/C17550-P80

>  <fragmenstein_runtime>  (804) 
37.35248374938965

>  <fragmenstein_outcome>  (804) 
too moved

>  <fragmenstein_mode>  (804) 
expansion

>  <fragmenstein_error>  (804) 


$$$$
C17551-P112
     RDKit          3D

 40 44  0  0  0  0  0  0  0  0999 V2000
   -8.6843  -25.4654    5.8865 C   0  0  0  0  0  0  0  0  0  0  0  0
   -8.6281  -25.4513    4.5739 N   0  0  0  0  0  0  0  0  0  0  0  0
   -8.9972  -24.1777    4.2136 C   0  0  0  0  0  0  0  0  0  0  0  0
   -9.3358  -23.4318    5.3163 C   0  0  0  0  0  0  0  0  0  0  0  0
   -9.7945  -22.0964    5.4445 C   0  0  0  0  0  0  0  0  0  0  0  0
   -9.0384  -21.0143    5.2631 N   0  0  0  0  0  0  0  0  0  0  0  0
   -9.8290  -19.9481    5.6298 C   0  0  0  0  0  0  0  0  0  0  0  0
   -9.5096  -18.2731    5.4448 C   0  0  0  0  0  0  0  0  0  0  0  0
   -9.4486  -17.5486    6.8583 C   0  0  0  0  0  0  0  0  0  0  0  0
   -8.4544  -17.2709    5.8452 C   0  0  0  0  0  0  0  0  0  0  0  0
   -8.2233  -15.8726    5.3069 C   0  0  0  0  0  0  0  0  0  0  0  0
   -7.0880  -16.7523    5.7069 C   0  0  0  0  0  0  0  0  0  0  0  0
  -11.0502  -20.3697    6.0048 N   0  0  0  0  0  0  0  0  0  0  0  0
  -11.0195  -21.7156    5.9127 N   0  0  0  0  0  0  0  0  0  0  0  0
  -12.2418  -22.4559    6.2301 C   0  0  0  0  0  0  0  0  0  0  0  0
  -12.6409  -23.6245    5.3230 C   0  0  0  0  0  0  0  0  0  0  0  0
  -14.0255  -24.1394    5.7387 C   0  0  0  0  0  0  0  0  0  0  0  0
  -14.0721  -24.5056    7.1202 O   0  0  0  0  0  0  0  0  0  0  0  0
  -13.7444  -23.4260    7.9891 C   0  0  0  0  0  0  0  0  0  0  0  0
  -12.3365  -22.9423    7.6793 C   0  0  0  0  0  0  0  0  0  0  0  0
   -9.1054  -24.2656    6.3810 N   0  0  0  0  0  0  0  0  0  0  0  0
   -8.4321  -26.3002    6.5262 H   0  0  0  0  0  0  0  0  0  0  0  0
   -9.0112  -23.8709    3.1757 H   0  0  0  0  0  0  0  0  0  0  0  0
  -10.2327  -17.8924    4.7261 H   0  0  0  0  0  0  0  0  0  0  0  0
   -9.1917  -18.1638    7.7054 H   0  0  0  0  0  0  0  0  0  0  0  0
  -10.2176  -16.8122    7.0621 H   0  0  0  0  0  0  0  0  0  0  0  0
   -8.4714  -15.0322    5.9438 H   0  0  0  0  0  0  0  0  0  0  0  0
   -8.3931  -15.7052    4.2501 H   0  0  0  0  0  0  0  0  0  0  0  0
   -6.4727  -17.1278    4.8974 H   0  0  0  0  0  0  0  0  0  0  0  0
   -6.5514  -16.4520    6.5989 H   0  0  0  0  0  0  0  0  0  0  0  0
  -13.0327  -21.7057    6.0826 H   0  0  0  0  0  0  0  0  0  0  0  0
  -11.9227  -24.4451    5.4208 H   0  0  0  0  0  0  0  0  0  0  0  0
  -12.6527  -23.3169    4.2716 H   0  0  0  0  0  0  0  0  0  0  0  0
  -14.7988  -23.3871    5.5427 H   0  0  0  0  0  0  0  0  0  0  0  0
  -14.2779  -25.0286    5.1521 H   0  0  0  0  0  0  0  0  0  0  0  0
  -14.4881  -22.6287    7.8824 H   0  0  0  0  0  0  0  0  0  0  0  0
  -13.7966  -23.7973    9.0172 H   0  0  0  0  0  0  0  0  0  0  0  0
  -11.6728  -23.8031    7.7995 H   0  0  0  0  0  0  0  0  0  0  0  0
  -12.0306  -22.1600    8.3726 H   0  0  0  0  0  0  0  0  0  0  0  0
   -9.2104  -24.0124    7.3597 H   0  0  0  0  0  0  0  0  0  0  0  0
  1  2  2  0
  2  3  1  0
  3  4  2  0
  4  5  1  0
  5  6  2  0
  6  7  1  0
  7  8  1  0
  8  9  1  0
  9 10  1  0
 10 11  1  0
 11 12  1  0
  7 13  2  0
 13 14  1  0
 14 15  1  0
 15 16  1  0
 16 17  1  0
 17 18  1  0
 18 19  1  0
 19 20  1  0
  4 21  1  0
 21  1  1  0
 14  5  1  0
 20 15  1  0
 10  8  1  0
 12 10  1  0
  1 22  1  0
  3 23  1  0
  8 24  1  0
  9 25  1  0
  9 26  1  0
 11 27  1  0
 11 28  1  0
 12 29  1  0
 12 30  1  0
 15 31  1  0
 16 32  1  0
 16 33  1  0
 17 34  1  0
 17 35  1  0
 19 36  1  0
 19 37  1  0
 20 38  1  0
 20 39  1  0
 21 40  1  0
M  END
>  <Energy>  (805) 
47.683867611967109

>  <compound_id>  (805) 
17551

>  <target_id>  (805) 
1

>  <reference_id>  (805) 
112

>  <inspiration_ids>  (805) 
[112, 80]

>  <energy_score>  (805) 
-7.3853224236855795

>  <distance_score>  (805) 
15.336607223012546

>  <path>  (805) 
/opt/xchem-fragalysis-2/maxwin/BulkDock/SCRATCH/511014/C17551-P112/C17551-P112.minimised.mol

>  <scratch_subdir>  (805) 
/opt/xchem-fragalysis-2/maxwin/BulkDock/SCRATCH/511014/C17551-P112

>  <fragmenstein_runtime>  (805) 
34.35330319404602

>  <fragmenstein_outcome>  (805) 
too moved

>  <fragmenstein_mode>  (805) 
expansion

>  <fragmenstein_error>  (805) 


$$$$
C17551-P80
     RDKit          3D

 40 44  0  0  0  0  0  0  0  0999 V2000
   -1.8185  -22.0109   15.6724 C   0  0  0  0  0  0  0  0  0  0  0  0
   -2.0076  -23.0413   14.8825 N   0  0  0  0  0  0  0  0  0  0  0  0
   -1.8268  -22.5477   13.6079 C   0  0  0  0  0  0  0  0  0  0  0  0
   -1.5204  -21.2025   13.6354 C   0  0  0  0  0  0  0  0  0  0  0  0
   -0.8848  -20.3640   12.6772 C   0  0  0  0  0  0  0  0  0  0  0  0
    0.4036  -20.5397   12.4917 N   0  0  0  0  0  0  0  0  0  0  0  0
    0.8049  -19.4319   11.8015 C   0  0  0  0  0  0  0  0  0  0  0  0
    2.3516  -19.0655   11.8395 C   0  0  0  0  0  0  0  0  0  0  0  0
    3.2190  -19.8906   10.8630 C   0  0  0  0  0  0  0  0  0  0  0  0
    3.2598  -18.4375   10.8747 C   0  0  0  0  0  0  0  0  0  0  0  0
    3.3885  -17.3546    9.9159 C   0  0  0  0  0  0  0  0  0  0  0  0
    4.4800  -17.6092   10.9665 C   0  0  0  0  0  0  0  0  0  0  0  0
   -0.2066  -18.6818   11.3477 N   0  0  0  0  0  0  0  0  0  0  0  0
   -1.2843  -19.2172   12.0058 N   0  0  0  0  0  0  0  0  0  0  0  0
   -2.6048  -18.5768   11.8741 C   0  0  0  0  0  0  0  0  0  0  0  0
   -3.4735  -18.6298   13.1296 C   0  0  0  0  0  0  0  0  0  0  0  0
   -4.3373  -17.4082   13.4408 C   0  0  0  0  0  0  0  0  0  0  0  0
   -4.8490  -16.7700   12.2800 O   0  0  0  0  0  0  0  0  0  0  0  0
   -3.8493  -16.2906   11.3792 C   0  0  0  0  0  0  0  0  0  0  0  0
   -2.6509  -17.2234   11.1230 C   0  0  0  0  0  0  0  0  0  0  0  0
   -1.5597  -20.8760   14.9653 N   0  0  0  0  0  0  0  0  0  0  0  0
   -1.8396  -22.0279   16.7527 H   0  0  0  0  0  0  0  0  0  0  0  0
   -1.8470  -23.2047   12.7497 H   0  0  0  0  0  0  0  0  0  0  0  0
    2.6949  -19.0461   12.8694 H   0  0  0  0  0  0  0  0  0  0  0  0
    4.0382  -20.4515   11.2926 H   0  0  0  0  0  0  0  0  0  0  0  0
    2.7193  -20.3795   10.0354 H   0  0  0  0  0  0  0  0  0  0  0  0
    3.6095  -17.6151    8.8871 H   0  0  0  0  0  0  0  0  0  0  0  0
    2.6804  -16.5450   10.0089 H   0  0  0  0  0  0  0  0  0  0  0  0
    4.5810  -17.0430   11.8797 H   0  0  0  0  0  0  0  0  0  0  0  0
    5.4150  -18.0327   10.6171 H   0  0  0  0  0  0  0  0  0  0  0  0
   -3.0746  -19.2489   11.1663 H   0  0  0  0  0  0  0  0  0  0  0  0
   -4.1203  -19.4891   12.9415 H   0  0  0  0  0  0  0  0  0  0  0  0
   -2.9348  -18.8943   14.0366 H   0  0  0  0  0  0  0  0  0  0  0  0
   -3.8167  -16.6876   14.0688 H   0  0  0  0  0  0  0  0  0  0  0  0
   -5.2013  -17.7189   14.0360 H   0  0  0  0  0  0  0  0  0  0  0  0
   -3.5707  -15.2797   11.6622 H   0  0  0  0  0  0  0  0  0  0  0  0
   -4.3343  -16.0761   10.4168 H   0  0  0  0  0  0  0  0  0  0  0  0
   -2.6273  -17.4410   10.0442 H   0  0  0  0  0  0  0  0  0  0  0  0
   -1.7294  -16.6486   11.2571 H   0  0  0  0  0  0  0  0  0  0  0  0
   -1.2492  -19.9997   15.3564 H   0  0  0  0  0  0  0  0  0  0  0  0
  1  2  2  0
  2  3  1  0
  3  4  2  0
  4  5  1  0
  5  6  2  0
  6  7  1  0
  7  8  1  0
  8  9  1  0
  9 10  1  0
 10 11  1  0
 11 12  1  0
  7 13  2  0
 13 14  1  0
 14 15  1  0
 15 16  1  0
 16 17  1  0
 17 18  1  0
 18 19  1  0
 19 20  1  0
  4 21  1  0
 21  1  1  0
 14  5  1  0
 20 15  1  0
 10  8  1  0
 12 10  1  0
  1 22  1  0
  3 23  1  0
  8 24  1  0
  9 25  1  0
  9 26  1  0
 11 27  1  0
 11 28  1  0
 12 29  1  0
 12 30  1  0
 15 31  1  0
 16 32  1  0
 16 33  1  0
 17 34  1  0
 17 35  1  0
 19 36  1  0
 19 37  1  0
 20 38  1  0
 20 39  1  0
 21 40  1  0
M  END
>  <Energy>  (806) 
58.51428880123958

>  <compound_id>  (806) 
17551

>  <target_id>  (806) 
1

>  <reference_id>  (806) 
80

>  <inspiration_ids>  (806) 
[112, 80]

>  <energy_score>  (806) 
3.4450987655889094

>  <distance_score>  (806) 
14.463415935167376

>  <path>  (806) 
/opt/xchem-fragalysis-2/maxwin/BulkDock/SCRATCH/511014/C17551-P80/C17551-P80.minimised.mol

>  <scratch_subdir>  (806) 
/opt/xchem-fragalysis-2/maxwin/BulkDock/SCRATCH/511014/C17551-P80

>  <fragmenstein_runtime>  (806) 
20.02265453338623

>  <fragmenstein_outcome>  (806) 
too moved

>  <fragmenstein_mode>  (806) 
expansion

>  <fragmenstein_error>  (806) 


$$$$
C17554-P112
     RDKit          3D

 45 47  0  0  0  0  0  0  0  0999 V2000
   -0.7527  -11.9571    8.0042 C   0  0  0  0  0  0  0  0  0  0  0  0
   -0.7334  -12.2128    9.5236 C   0  0  0  0  0  0  0  0  0  0  0  0
   -1.3146  -10.9582   10.2087 C   0  0  0  0  0  0  0  0  0  0  0  0
    0.7663  -12.3147   10.0171 C   0  0  0  0  0  0  0  0  0  0  0  0
    1.5183  -11.0948   10.0537 O   0  0  0  0  0  0  0  0  0  0  0  0
   -1.4810  -13.6776    9.7723 C   0  0  0  0  0  0  0  0  0  0  0  0
   -3.0319  -14.0285    9.6348 C   0  0  0  0  0  0  0  0  0  0  0  0
   -3.5812  -14.6693    8.5402 N   0  0  0  0  0  0  0  0  0  0  0  0
   -4.8453  -14.9157    8.8609 C   0  0  0  0  0  0  0  0  0  0  0  0
   -5.8263  -15.3128    7.9112 C   0  0  0  0  0  0  0  0  0  0  0  0
   -6.2600  -14.6398    6.7894 C   0  0  0  0  0  0  0  0  0  0  0  0
   -7.3189  -15.2747    6.2007 N   0  0  0  0  0  0  0  0  0  0  0  0
   -7.5056  -16.3528    6.9212 C   0  0  0  0  0  0  0  0  0  0  0  0
   -6.5779  -16.4538    7.9233 N   0  0  0  0  0  0  0  0  0  0  0  0
   -5.0664  -14.5178   10.1595 N   0  0  0  0  0  0  0  0  0  0  0  0
   -6.2878  -14.4518   10.9895 C   0  0  0  0  0  0  0  0  0  0  0  0
   -7.6108  -14.1033   10.2749 C   0  0  0  0  0  0  0  0  0  0  0  0
   -8.8244  -14.1595   11.2050 C   0  0  0  0  0  0  0  0  0  0  0  0
   -8.8860  -15.3938   11.9124 O   0  0  0  0  0  0  0  0  0  0  0  0
   -7.7397  -15.5785   12.7327 C   0  0  0  0  0  0  0  0  0  0  0  0
   -6.4564  -15.6756   11.8995 C   0  0  0  0  0  0  0  0  0  0  0  0
   -3.8974  -14.0314   10.6716 N   0  0  0  0  0  0  0  0  0  0  0  0
   -1.7805  -11.8506    7.6400 H   0  0  0  0  0  0  0  0  0  0  0  0
   -0.2065  -11.0440    7.7425 H   0  0  0  0  0  0  0  0  0  0  0  0
   -0.2871  -12.7843    7.4572 H   0  0  0  0  0  0  0  0  0  0  0  0
   -1.0993  -10.9461   11.2797 H   0  0  0  0  0  0  0  0  0  0  0  0
   -0.8903  -10.0370    9.7917 H   0  0  0  0  0  0  0  0  0  0  0  0
   -2.3976  -10.9009   10.0580 H   0  0  0  0  0  0  0  0  0  0  0  0
    0.7568  -12.7338   11.0264 H   0  0  0  0  0  0  0  0  0  0  0  0
    1.3082  -13.0132    9.3709 H   0  0  0  0  0  0  0  0  0  0  0  0
    1.1635  -10.5512   10.7778 H   0  0  0  0  0  0  0  0  0  0  0  0
   -0.9846  -14.3852    9.0908 H   0  0  0  0  0  0  0  0  0  0  0  0
   -1.1847  -14.0223   10.7711 H   0  0  0  0  0  0  0  0  0  0  0  0
   -5.8851  -13.7003    6.4016 H   0  0  0  0  0  0  0  0  0  0  0  0
   -8.2766  -17.0937    6.7576 H   0  0  0  0  0  0  0  0  0  0  0  0
   -6.4760  -17.2354    8.5489 H   0  0  0  0  0  0  0  0  0  0  0  0
   -6.0945  -13.5973   11.6558 H   0  0  0  0  0  0  0  0  0  0  0  0
   -7.5380  -13.1064    9.8236 H   0  0  0  0  0  0  0  0  0  0  0  0
   -7.8066  -14.7895    9.4573 H   0  0  0  0  0  0  0  0  0  0  0  0
   -9.7445  -14.0609   10.6199 H   0  0  0  0  0  0  0  0  0  0  0  0
   -8.8037  -13.3297   11.9216 H   0  0  0  0  0  0  0  0  0  0  0  0
   -7.8763  -16.4926   13.3155 H   0  0  0  0  0  0  0  0  0  0  0  0
   -7.7004  -14.7440   13.4386 H   0  0  0  0  0  0  0  0  0  0  0  0
   -5.5865  -15.7832   12.5556 H   0  0  0  0  0  0  0  0  0  0  0  0
   -6.4648  -16.5723   11.2826 H   0  0  0  0  0  0  0  0  0  0  0  0
  1  2  1  0
  2  3  1  0
  2  4  1  0
  4  5  1  0
  2  6  1  0
  6  7  1  0
  7  8  1  0
  8  9  2  0
  9 10  1  0
 10 11  2  0
 11 12  1  0
 12 13  2  0
 13 14  1  0
  9 15  1  0
 15 16  1  0
 16 17  1  0
 17 18  1  0
 18 19  1  0
 19 20  1  0
 20 21  1  0
 15 22  1  0
 22  7  2  0
 14 10  1  0
 21 16  1  0
  1 23  1  0
  1 24  1  0
  1 25  1  0
  3 26  1  0
  3 27  1  0
  3 28  1  0
  4 29  1  0
  4 30  1  0
  5 31  1  0
  6 32  1  0
  6 33  1  0
 11 34  1  0
 13 35  1  0
 14 36  1  0
 16 37  1  0
 17 38  1  0
 17 39  1  0
 18 40  1  0
 18 41  1  0
 20 42  1  0
 20 43  1  0
 21 44  1  0
 21 45  1  0
M  END
>  <Energy>  (807) 
46.398466088704652

>  <compound_id>  (807) 
17554

>  <target_id>  (807) 
1

>  <reference_id>  (807) 
112

>  <inspiration_ids>  (807) 
[112, 80]

>  <energy_score>  (807) 
-9.367338988049198

>  <distance_score>  (807) 
13.911181461111997

>  <path>  (807) 
/opt/xchem-fragalysis-2/maxwin/BulkDock/SCRATCH/511014/C17554-P112/C17554-P112.minimised.mol

>  <scratch_subdir>  (807) 
/opt/xchem-fragalysis-2/maxwin/BulkDock/SCRATCH/511014/C17554-P112

>  <fragmenstein_runtime>  (807) 
22.58156967163086

>  <fragmenstein_outcome>  (807) 
too moved

>  <fragmenstein_mode>  (807) 
expansion

>  <fragmenstein_error>  (807) 


$$$$
C17554-P80
     RDKit          3D

 45 47  0  0  0  0  0  0  0  0999 V2000
    3.7532  -21.5606   12.8827 C   0  0  0  0  0  0  0  0  0  0  0  0
    3.1849  -20.4018   13.7405 C   0  0  0  0  0  0  0  0  0  0  0  0
    2.2927  -19.5366   12.8345 C   0  0  0  0  0  0  0  0  0  0  0  0
    4.4613  -19.5319   14.1951 C   0  0  0  0  0  0  0  0  0  0  0  0
    4.2671  -18.2535   14.7906 O   0  0  0  0  0  0  0  0  0  0  0  0
    2.4074  -21.1075   14.9618 C   0  0  0  0  0  0  0  0  0  0  0  0
    1.1347  -22.0858   14.9752 C   0  0  0  0  0  0  0  0  0  0  0  0
    0.5184  -22.2233   16.2260 N   0  0  0  0  0  0  0  0  0  0  0  0
   -0.6335  -22.8046   15.9844 C   0  0  0  0  0  0  0  0  0  0  0  0
   -1.7266  -22.7904   16.8968 C   0  0  0  0  0  0  0  0  0  0  0  0
   -1.8218  -23.2084   18.2033 C   0  0  0  0  0  0  0  0  0  0  0  0
   -3.0213  -22.8420   18.7608 N   0  0  0  0  0  0  0  0  0  0  0  0
   -3.6529  -22.2051   17.8028 C   0  0  0  0  0  0  0  0  0  0  0  0
   -2.9290  -22.1827   16.6431 N   0  0  0  0  0  0  0  0  0  0  0  0
   -0.6321  -23.2820   14.6954 N   0  0  0  0  0  0  0  0  0  0  0  0
   -1.6924  -24.1598   14.1719 C   0  0  0  0  0  0  0  0  0  0  0  0
   -1.7001  -25.5487   14.8336 C   0  0  0  0  0  0  0  0  0  0  0  0
   -2.8569  -26.4216   14.3579 C   0  0  0  0  0  0  0  0  0  0  0  0
   -2.9966  -26.4590   12.9461 O   0  0  0  0  0  0  0  0  0  0  0  0
   -2.9586  -25.1961   12.2903 C   0  0  0  0  0  0  0  0  0  0  0  0
   -1.7306  -24.3620   12.6727 C   0  0  0  0  0  0  0  0  0  0  0  0
    0.4878  -22.8027   14.0114 N   0  0  0  0  0  0  0  0  0  0  0  0
    4.4464  -22.1788   13.4643 H   0  0  0  0  0  0  0  0  0  0  0  0
    4.2981  -21.1792   12.0115 H   0  0  0  0  0  0  0  0  0  0  0  0
    2.9555  -22.2127   12.5109 H   0  0  0  0  0  0  0  0  0  0  0  0
    1.3922  -19.2180   13.3573 H   0  0  0  0  0  0  0  0  0  0  0  0
    2.8207  -18.6757   12.4134 H   0  0  0  0  0  0  0  0  0  0  0  0
    1.9224  -20.1193   11.9816 H   0  0  0  0  0  0  0  0  0  0  0  0
    5.0910  -19.3553   13.3149 H   0  0  0  0  0  0  0  0  0  0  0  0
    5.0605  -20.1293   14.8909 H   0  0  0  0  0  0  0  0  0  0  0  0
    3.3442  -17.9804   14.5864 H   0  0  0  0  0  0  0  0  0  0  0  0
    3.1656  -21.6785   15.5193 H   0  0  0  0  0  0  0  0  0  0  0  0
    2.1247  -20.2851   15.6355 H   0  0  0  0  0  0  0  0  0  0  0  0
   -1.0645  -23.7173   18.7859 H   0  0  0  0  0  0  0  0  0  0  0  0
   -4.6292  -21.7492   17.8832 H   0  0  0  0  0  0  0  0  0  0  0  0
   -3.1958  -21.7315   15.7778 H   0  0  0  0  0  0  0  0  0  0  0  0
   -2.6223  -23.6508   14.4415 H   0  0  0  0  0  0  0  0  0  0  0  0
   -0.7554  -26.0525   14.5873 H   0  0  0  0  0  0  0  0  0  0  0  0
   -1.7329  -25.4798   15.9259 H   0  0  0  0  0  0  0  0  0  0  0  0
   -2.6781  -27.4515   14.6874 H   0  0  0  0  0  0  0  0  0  0  0  0
   -3.7941  -26.1321   14.8265 H   0  0  0  0  0  0  0  0  0  0  0  0
   -2.9281  -25.4237   11.2206 H   0  0  0  0  0  0  0  0  0  0  0  0
   -3.8878  -24.6540   12.4674 H   0  0  0  0  0  0  0  0  0  0  0  0
   -0.8223  -24.8838   12.3452 H   0  0  0  0  0  0  0  0  0  0  0  0
   -1.7291  -23.3840   12.1904 H   0  0  0  0  0  0  0  0  0  0  0  0
  1  2  1  0
  2  3  1  0
  2  4  1  0
  4  5  1  0
  2  6  1  0
  6  7  1  0
  7  8  1  0
  8  9  2  0
  9 10  1  0
 10 11  2  0
 11 12  1  0
 12 13  2  0
 13 14  1  0
  9 15  1  0
 15 16  1  0
 16 17  1  0
 17 18  1  0
 18 19  1  0
 19 20  1  0
 20 21  1  0
 15 22  1  0
 22  7  2  0
 14 10  1  0
 21 16  1  0
  1 23  1  0
  1 24  1  0
  1 25  1  0
  3 26  1  0
  3 27  1  0
  3 28  1  0
  4 29  1  0
  4 30  1  0
  5 31  1  0
  6 32  1  0
  6 33  1  0
 11 34  1  0
 13 35  1  0
 14 36  1  0
 16 37  1  0
 17 38  1  0
 17 39  1  0
 18 40  1  0
 18 41  1  0
 20 42  1  0
 20 43  1  0
 21 44  1  0
 21 45  1  0
M  END
>  <Energy>  (808) 
58.355586424779936

>  <compound_id>  (808) 
17554

>  <target_id>  (808) 
1

>  <reference_id>  (808) 
80

>  <inspiration_ids>  (808) 
[112, 80]

>  <energy_score>  (808) 
2.589781348028538

>  <distance_score>  (808) 
14.709079247560854

>  <path>  (808) 
/opt/xchem-fragalysis-2/maxwin/BulkDock/SCRATCH/511014/C17554-P80/C17554-P80.minimised.mol

>  <scratch_subdir>  (808) 
/opt/xchem-fragalysis-2/maxwin/BulkDock/SCRATCH/511014/C17554-P80

>  <fragmenstein_runtime>  (808) 
31.18444299697876

>  <fragmenstein_outcome>  (808) 
too moved

>  <fragmenstein_mode>  (808) 
expansion

>  <fragmenstein_error>  (808) 


$$$$
C8086-P112
     RDKit          3D

 49 50  0  0  0  0  0  0  0  0999 V2000
   -1.6199  -20.4779   13.2083 C   0  0  0  0  0  0  0  0  0  0  0  0
   -1.6687  -20.2484   11.6984 C   0  0  0  0  0  0  0  0  0  0  0  0
   -2.7827  -21.1329   11.1025 C   0  0  0  0  0  0  0  0  0  0  0  0
   -4.1126  -20.9563   11.6599 N   0  0  0  0  0  0  0  0  0  0  0  0
   -5.3369  -21.6504   11.4034 C   0  0  0  0  0  0  0  0  0  0  0  0
   -5.5629  -22.6072   10.7205 O   0  0  0  0  0  0  0  0  0  0  0  0
   -6.6400  -20.9466   12.0720 C   0  0  0  0  0  0  0  0  0  0  0  0
   -7.8008  -21.9561   12.6893 C   0  0  0  0  0  0  0  0  0  0  0  0
   -9.3438  -22.3796   13.0844 C   0  0  0  0  0  0  0  0  0  0  0  0
  -10.1538  -23.2419   12.0583 C   0  0  0  0  0  0  0  0  0  0  0  0
  -11.4522  -23.8618   12.5621 C   0  0  0  0  0  0  0  0  0  0  0  0
  -11.2848  -24.6128   13.7508 O   0  0  0  0  0  0  0  0  0  0  0  0
   -9.9519  -24.5734   14.2507 C   0  0  0  0  0  0  0  0  0  0  0  0
   -9.4174  -23.1334   14.3899 C   0  0  0  0  0  0  0  0  0  0  0  0
   -0.2968  -20.5890   11.0187 C   0  0  0  0  0  0  0  0  0  0  0  0
    0.8192  -19.6228   11.0570 N   0  0  0  0  0  0  0  0  0  0  0  0
    2.0929  -19.6722   11.7411 C   0  0  0  0  0  0  0  0  0  0  0  0
    2.5313  -20.4735   12.5143 O   0  0  0  0  0  0  0  0  0  0  0  0
    3.0485  -18.6059   11.3418 C   0  0  0  0  0  0  0  0  0  0  0  0
    3.1760  -17.7083   10.2910 C   0  0  0  0  0  0  0  0  0  0  0  0
    4.3514  -16.9774   10.3576 N   0  0  0  0  0  0  0  0  0  0  0  0
    4.9281  -17.3591   11.4716 C   0  0  0  0  0  0  0  0  0  0  0  0
    4.1876  -18.3191   12.0970 N   0  0  0  0  0  0  0  0  0  0  0  0
   -0.7586  -19.9666   13.6498 H   0  0  0  0  0  0  0  0  0  0  0  0
   -1.5293  -21.5427   13.4493 H   0  0  0  0  0  0  0  0  0  0  0  0
   -2.5152  -20.0898   13.7028 H   0  0  0  0  0  0  0  0  0  0  0  0
   -1.9030  -19.1974   11.5024 H   0  0  0  0  0  0  0  0  0  0  0  0
   -2.8730  -20.9493   10.0255 H   0  0  0  0  0  0  0  0  0  0  0  0
   -2.5348  -22.1956   11.2133 H   0  0  0  0  0  0  0  0  0  0  0  0
   -4.2783  -20.2468   12.3496 H   0  0  0  0  0  0  0  0  0  0  0  0
   -6.3647  -20.0926   12.6357 H   0  0  0  0  0  0  0  0  0  0  0  0
   -7.0700  -20.3622   11.2387 H   0  0  0  0  0  0  0  0  0  0  0  0
   -8.3990  -21.4130   11.9491 H   0  0  0  0  0  0  0  0  0  0  0  0
   -7.3713  -22.9246   12.4319 H   0  0  0  0  0  0  0  0  0  0  0  0
   -9.9361  -21.4684   13.2199 H   0  0  0  0  0  0  0  0  0  0  0  0
   -9.5439  -24.0946   11.7342 H   0  0  0  0  0  0  0  0  0  0  0  0
  -10.3928  -22.6375   11.1928 H   0  0  0  0  0  0  0  0  0  0  0  0
  -12.2184  -23.1105   12.7455 H   0  0  0  0  0  0  0  0  0  0  0  0
  -11.8593  -24.5339   11.7985 H   0  0  0  0  0  0  0  0  0  0  0  0
   -9.3236  -25.1869   13.5956 H   0  0  0  0  0  0  0  0  0  0  0  0
   -9.9668  -25.0998   15.2009 H   0  0  0  0  0  0  0  0  0  0  0  0
   -8.5537  -22.9894   15.0260 H   0  0  0  0  0  0  0  0  0  0  0  0
  -10.0479  -22.5375   14.9821 H   0  0  0  0  0  0  0  0  0  0  0  0
   -0.4691  -20.7530    9.9483 H   0  0  0  0  0  0  0  0  0  0  0  0
    0.0856  -21.5315   11.4285 H   0  0  0  0  0  0  0  0  0  0  0  0
    0.8210  -18.8432   10.4129 H   0  0  0  0  0  0  0  0  0  0  0  0
    2.5054  -17.5721    9.4536 H   0  0  0  0  0  0  0  0  0  0  0  0
    5.8637  -16.9919   11.8680 H   0  0  0  0  0  0  0  0  0  0  0  0
    4.3982  -18.7791   12.9713 H   0  0  0  0  0  0  0  0  0  0  0  0
  1  2  1  0
  2  3  1  0
  3  4  1  0
  4  5  1  0
  5  6  2  0
  5  7  1  0
  7  8  1  0
  8  9  1  0
  9 10  1  0
 10 11  1  0
 11 12  1  0
 12 13  1  0
 13 14  1  0
  2 15  1  0
 15 16  1  0
 16 17  1  0
 17 18  2  0
 17 19  1  0
 19 20  2  0
 20 21  1  0
 21 22  2  0
 22 23  1  0
 14  9  1  0
 23 19  1  0
  1 24  1  0
  1 25  1  0
  1 26  1  0
  2 27  1  0
  3 28  1  0
  3 29  1  0
  4 30  1  0
  7 31  1  0
  7 32  1  0
  8 33  1  0
  8 34  1  0
  9 35  1  0
 10 36  1  0
 10 37  1  0
 11 38  1  0
 11 39  1  0
 13 40  1  0
 13 41  1  0
 14 42  1  0
 14 43  1  0
 15 44  1  0
 15 45  1  0
 16 46  1  0
 20 47  1  0
 22 48  1  0
 23 49  1  0
M  END
>  <Energy>  (809) 
78.084199629285663

>  <compound_id>  (809) 
8086

>  <target_id>  (809) 
1

>  <reference_id>  (809) 
112

>  <inspiration_ids>  (809) 
[112, 80]

>  <energy_score>  (809) 
84.27733965278189

>  <distance_score>  (809) 
12.056349029627999

>  <path>  (809) 
/opt/xchem-fragalysis-2/maxwin/BulkDock/SCRATCH/511014/C8086-P112/C8086-P112.minimised.mol

>  <scratch_subdir>  (809) 
/opt/xchem-fragalysis-2/maxwin/BulkDock/SCRATCH/511014/C8086-P112

>  <fragmenstein_runtime>  (809) 
27.496810913085938

>  <fragmenstein_outcome>  (809) 
too moved

>  <fragmenstein_mode>  (809) 
expansion

>  <fragmenstein_error>  (809) 


$$$$
C8086-P80
     RDKit          3D

 49 50  0  0  0  0  0  0  0  0999 V2000
   -4.7542  -15.8488   12.4272 C   0  0  0  0  0  0  0  0  0  0  0  0
   -4.5873  -16.6085   13.7558 C   0  0  0  0  0  0  0  0  0  0  0  0
   -4.8292  -18.1130   13.5109 C   0  0  0  0  0  0  0  0  0  0  0  0
   -6.2476  -18.5425   12.6366 N   0  0  0  0  0  0  0  0  0  0  0  0
   -7.0288  -20.0124   12.4896 C   0  0  0  0  0  0  0  0  0  0  0  0
   -6.7743  -21.0995   13.0087 O   0  0  0  0  0  0  0  0  0  0  0  0
   -8.5225  -20.1204   11.5913 C   0  0  0  0  0  0  0  0  0  0  0  0
   -9.0898  -21.6478   11.4081 C   0  0  0  0  0  0  0  0  0  0  0  0
  -10.3426  -22.4074   11.9409 C   0  0  0  0  0  0  0  0  0  0  0  0
  -10.8812  -23.2881   10.7555 C   0  0  0  0  0  0  0  0  0  0  0  0
  -11.9543  -24.3090   11.1257 C   0  0  0  0  0  0  0  0  0  0  0  0
  -11.5195  -25.1291   12.1997 O   0  0  0  0  0  0  0  0  0  0  0  0
  -11.2289  -24.3270   13.3402 C   0  0  0  0  0  0  0  0  0  0  0  0
  -10.0470  -23.3996   13.0719 C   0  0  0  0  0  0  0  0  0  0  0  0
   -3.2498  -16.1976   15.0056 C   0  0  0  0  0  0  0  0  0  0  0  0
   -1.9817  -14.7910   14.8897 N   0  0  0  0  0  0  0  0  0  0  0  0
   -0.6957  -14.3562   13.4775 C   0  0  0  0  0  0  0  0  0  0  0  0
   -0.4952  -15.0730   12.4728 O   0  0  0  0  0  0  0  0  0  0  0  0
   -0.0083  -13.2317   13.3353 C   0  0  0  0  0  0  0  0  0  0  0  0
    0.7719  -12.2572   13.6048 C   0  0  0  0  0  0  0  0  0  0  0  0
    1.0060  -11.3490   12.4755 N   0  0  0  0  0  0  0  0  0  0  0  0
    0.1130  -11.6863   11.6604 C   0  0  0  0  0  0  0  0  0  0  0  0
   -0.0573  -12.9684   11.9261 N   0  0  0  0  0  0  0  0  0  0  0  0
   -4.5185  -14.7853   12.4950 H   0  0  0  0  0  0  0  0  0  0  0  0
   -5.7942  -15.8982   12.0872 H   0  0  0  0  0  0  0  0  0  0  0  0
   -4.1346  -16.2541   11.6254 H   0  0  0  0  0  0  0  0  0  0  0  0
   -5.4881  -16.4692   14.3543 H   0  0  0  0  0  0  0  0  0  0  0  0
   -3.9758  -18.6409   13.0682 H   0  0  0  0  0  0  0  0  0  0  0  0
   -4.8924  -18.4211   14.5258 H   0  0  0  0  0  0  0  0  0  0  0  0
   -6.7676  -17.8294   12.1378 H   0  0  0  0  0  0  0  0  0  0  0  0
   -8.3790  -19.7607   10.5963 H   0  0  0  0  0  0  0  0  0  0  0  0
   -9.3238  -19.5171   12.0162 H   0  0  0  0  0  0  0  0  0  0  0  0
   -9.2631  -21.6479   10.3252 H   0  0  0  0  0  0  0  0  0  0  0  0
   -8.2880  -22.3459   11.6335 H   0  0  0  0  0  0  0  0  0  0  0  0
  -11.0819  -21.7125   12.3195 H   0  0  0  0  0  0  0  0  0  0  0  0
  -10.0296  -23.8593   10.3569 H   0  0  0  0  0  0  0  0  0  0  0  0
  -11.2331  -22.6625    9.9291 H   0  0  0  0  0  0  0  0  0  0  0  0
  -12.9037  -23.8443   11.4031 H   0  0  0  0  0  0  0  0  0  0  0  0
  -12.1538  -24.9597   10.2680 H   0  0  0  0  0  0  0  0  0  0  0  0
  -10.9949  -25.0017   14.1692 H   0  0  0  0  0  0  0  0  0  0  0  0
  -12.1339  -23.7696   13.5810 H   0  0  0  0  0  0  0  0  0  0  0  0
   -9.2266  -24.0436   12.7451 H   0  0  0  0  0  0  0  0  0  0  0  0
   -9.7486  -22.8677   13.9802 H   0  0  0  0  0  0  0  0  0  0  0  0
   -3.7669  -16.0534   15.9648 H   0  0  0  0  0  0  0  0  0  0  0  0
   -2.8458  -17.2108   14.8994 H   0  0  0  0  0  0  0  0  0  0  0  0
   -1.9010  -14.1141   15.6444 H   0  0  0  0  0  0  0  0  0  0  0  0
    1.3291  -12.2390   14.4930 H   0  0  0  0  0  0  0  0  0  0  0  0
   -0.2905  -11.1103   10.8698 H   0  0  0  0  0  0  0  0  0  0  0  0
   -0.5420  -13.6256   11.3317 H   0  0  0  0  0  0  0  0  0  0  0  0
  1  2  1  0
  2  3  1  0
  3  4  1  0
  4  5  1  0
  5  6  2  0
  5  7  1  0
  7  8  1  0
  8  9  1  0
  9 10  1  0
 10 11  1  0
 11 12  1  0
 12 13  1  0
 13 14  1  0
  2 15  1  0
 15 16  1  0
 16 17  1  0
 17 18  2  0
 17 19  1  0
 19 20  2  0
 20 21  1  0
 21 22  2  0
 22 23  1  0
 14  9  1  0
 23 19  1  0
  1 24  1  0
  1 25  1  0
  1 26  1  0
  2 27  1  0
  3 28  1  0
  3 29  1  0
  4 30  1  0
  7 31  1  0
  7 32  1  0
  8 33  1  0
  8 34  1  0
  9 35  1  0
 10 36  1  0
 10 37  1  0
 11 38  1  0
 11 39  1  0
 13 40  1  0
 13 41  1  0
 14 42  1  0
 14 43  1  0
 15 44  1  0
 15 45  1  0
 16 46  1  0
 20 47  1  0
 22 48  1  0
 23 49  1  0
M  END
>  <Energy>  (810) 
329.16815910016919

>  <compound_id>  (810) 
8086

>  <target_id>  (810) 
1

>  <reference_id>  (810) 
80

>  <inspiration_ids>  (810) 
[112, 80]

>  <energy_score>  (810) 
335.3612991236684

>  <distance_score>  (810) 
10.879703536286181

>  <path>  (810) 
/opt/xchem-fragalysis-2/maxwin/BulkDock/SCRATCH/511014/C8086-P80/C8086-P80.minimised.mol

>  <scratch_subdir>  (810) 
/opt/xchem-fragalysis-2/maxwin/BulkDock/SCRATCH/511014/C8086-P80

>  <fragmenstein_runtime>  (810) 
17.567932605743408

>  <fragmenstein_outcome>  (810) 
too moved

>  <fragmenstein_mode>  (810) 
expansion

>  <fragmenstein_error>  (810) 


$$$$
C17556-P112
     RDKit          3D

 34 35  0  0  0  0  0  0  0  0999 V2000
   -2.1443  -11.5982   20.0833 O   0  0  0  0  0  0  0  0  0  0  0  0
   -2.7288  -10.9725   19.2489 C   0  0  0  0  0  0  0  0  0  0  0  0
   -2.4765   -9.6382   18.7114 N   0  0  0  0  0  0  0  0  0  0  0  0
   -1.4229   -8.7371   18.9458 N   0  0  0  0  0  0  0  0  0  0  0  0
   -1.3742   -7.2776   18.8695 C   0  0  0  0  0  0  0  0  0  0  0  0
   -2.2464   -6.4756   18.6643 O   0  0  0  0  0  0  0  0  0  0  0  0
    0.1396   -6.7113   18.9821 C   0  0  0  0  0  0  0  0  0  0  0  0
    0.6805   -6.9467   20.4037 C   0  0  0  0  0  0  0  0  0  0  0  0
    1.9524   -6.5160   20.5680 F   0  0  0  0  0  0  0  0  0  0  0  0
    0.6666   -8.2458   20.7618 F   0  0  0  0  0  0  0  0  0  0  0  0
   -0.0691   -6.2817   21.3175 F   0  0  0  0  0  0  0  0  0  0  0  0
    0.1737   -5.1838   18.6556 C   0  0  0  0  0  0  0  0  0  0  0  0
    1.5798   -4.6045   18.4491 C   0  0  0  0  0  0  0  0  0  0  0  0
    2.3486   -5.4338   17.4410 C   0  0  0  0  0  0  0  0  0  0  0  0
    2.2299   -6.9170   17.7566 C   0  0  0  0  0  0  0  0  0  0  0  0
    0.8805   -7.3708   17.9286 O   0  0  0  0  0  0  0  0  0  0  0  0
   -3.8325  -11.7215   18.5845 C   0  0  0  0  0  0  0  0  0  0  0  0
   -3.9068  -13.1117   18.4268 C   0  0  0  0  0  0  0  0  0  0  0  0
   -5.0577  -13.5191   17.7971 N   0  0  0  0  0  0  0  0  0  0  0  0
   -5.7330  -12.4132   17.6095 C   0  0  0  0  0  0  0  0  0  0  0  0
   -5.0386  -11.3096   18.0515 N   0  0  0  0  0  0  0  0  0  0  0  0
   -3.1246   -9.4576   17.9544 H   0  0  0  0  0  0  0  0  0  0  0  0
   -0.4614   -9.1029   19.0543 H   0  0  0  0  0  0  0  0  0  0  0  0
   -0.3828   -5.0131   17.7234 H   0  0  0  0  0  0  0  0  0  0  0  0
   -0.3484   -4.6146   19.4342 H   0  0  0  0  0  0  0  0  0  0  0  0
    1.5037   -3.5687   18.0985 H   0  0  0  0  0  0  0  0  0  0  0  0
    2.1204   -4.5687   19.4002 H   0  0  0  0  0  0  0  0  0  0  0  0
    3.3996   -5.1301   17.4019 H   0  0  0  0  0  0  0  0  0  0  0  0
    1.9193   -5.2480   16.4488 H   0  0  0  0  0  0  0  0  0  0  0  0
    2.8375   -7.2088   18.6175 H   0  0  0  0  0  0  0  0  0  0  0  0
    2.5992   -7.4639   16.8961 H   0  0  0  0  0  0  0  0  0  0  0  0
   -3.1630  -13.8333   18.7448 H   0  0  0  0  0  0  0  0  0  0  0  0
   -6.7182  -12.3349   17.1680 H   0  0  0  0  0  0  0  0  0  0  0  0
   -5.4026  -10.3671   18.0544 H   0  0  0  0  0  0  0  0  0  0  0  0
  1  2  2  0
  2  3  1  0
  3  4  1  0
  4  5  1  0
  5  6  2  0
  5  7  1  0
  7  8  1  0
  8  9  1  0
  8 10  1  0
  8 11  1  0
  7 12  1  0
 12 13  1  0
 13 14  1  0
 14 15  1  0
 15 16  1  0
  2 17  1  0
 17 18  2  0
 18 19  1  0
 19 20  2  0
 20 21  1  0
 16  7  1  0
 21 17  1  0
  3 22  1  0
  4 23  1  0
 12 24  1  0
 12 25  1  0
 13 26  1  0
 13 27  1  0
 14 28  1  0
 14 29  1  0
 15 30  1  0
 15 31  1  0
 18 32  1  0
 20 33  1  0
 21 34  1  0
M  END
>  <Energy>  (811) 
105.1225928303937

>  <compound_id>  (811) 
17556

>  <target_id>  (811) 
1

>  <reference_id>  (811) 
112

>  <inspiration_ids>  (811) 
[112, 80]

>  <energy_score>  (811) 
-8.460298132995547

>  <distance_score>  (811) 
14.841522046063556

>  <path>  (811) 
/opt/xchem-fragalysis-2/maxwin/BulkDock/SCRATCH/511014/C17556-P112/C17556-P112.minimised.mol

>  <scratch_subdir>  (811) 
/opt/xchem-fragalysis-2/maxwin/BulkDock/SCRATCH/511014/C17556-P112

>  <fragmenstein_runtime>  (811) 
20.868614435195923

>  <fragmenstein_outcome>  (811) 
too moved

>  <fragmenstein_mode>  (811) 
expansion

>  <fragmenstein_error>  (811) 


$$$$
C17556-P80
     RDKit          3D

 34 35  0  0  0  0  0  0  0  0999 V2000
   -2.6355   -6.2102   13.7970 O   0  0  0  0  0  0  0  0  0  0  0  0
   -2.2534   -6.6541   12.7503 C   0  0  0  0  0  0  0  0  0  0  0  0
   -1.2044   -6.1957   11.8548 N   0  0  0  0  0  0  0  0  0  0  0  0
   -0.2722   -5.1616   11.9891 N   0  0  0  0  0  0  0  0  0  0  0  0
    1.1085   -5.0524   11.5237 C   0  0  0  0  0  0  0  0  0  0  0  0
    1.7639   -5.7923   10.8397 O   0  0  0  0  0  0  0  0  0  0  0  0
    1.8595   -3.7214   12.0478 C   0  0  0  0  0  0  0  0  0  0  0  0
    1.9301   -3.7713   13.5907 C   0  0  0  0  0  0  0  0  0  0  0  0
    0.6709   -3.7586   14.1086 F   0  0  0  0  0  0  0  0  0  0  0  0
    2.5687   -2.7147   14.1394 F   0  0  0  0  0  0  0  0  0  0  0  0
    2.5324   -4.8672   14.0719 F   0  0  0  0  0  0  0  0  0  0  0  0
    3.2855   -3.6919   11.4155 C   0  0  0  0  0  0  0  0  0  0  0  0
    4.0615   -2.4056   11.6885 C   0  0  0  0  0  0  0  0  0  0  0  0
    3.2168   -1.2136   11.2829 C   0  0  0  0  0  0  0  0  0  0  0  0
    1.8017   -1.3021   11.8433 C   0  0  0  0  0  0  0  0  0  0  0  0
    1.1441   -2.5549   11.5688 O   0  0  0  0  0  0  0  0  0  0  0  0
   -3.0209   -7.8359   12.2569 C   0  0  0  0  0  0  0  0  0  0  0  0
   -2.8567   -8.8209   11.2890 C   0  0  0  0  0  0  0  0  0  0  0  0
   -3.9495   -9.6727   11.2124 N   0  0  0  0  0  0  0  0  0  0  0  0
   -4.7698   -9.2656   12.1487 C   0  0  0  0  0  0  0  0  0  0  0  0
   -4.2269   -8.2259   12.8461 N   0  0  0  0  0  0  0  0  0  0  0  0
   -1.2108   -6.7682   11.0147 H   0  0  0  0  0  0  0  0  0  0  0  0
   -0.5268   -4.3049   12.4840 H   0  0  0  0  0  0  0  0  0  0  0  0
    3.8660   -4.5687   11.7134 H   0  0  0  0  0  0  0  0  0  0  0  0
    3.1784   -3.7677   10.3234 H   0  0  0  0  0  0  0  0  0  0  0  0
    4.3362   -2.3226   12.7435 H   0  0  0  0  0  0  0  0  0  0  0  0
    4.9981   -2.4072   11.1195 H   0  0  0  0  0  0  0  0  0  0  0  0
    3.1563   -1.1908   10.1875 H   0  0  0  0  0  0  0  0  0  0  0  0
    3.6881   -0.2787   11.6002 H   0  0  0  0  0  0  0  0  0  0  0  0
    1.7768   -1.0959   12.9166 H   0  0  0  0  0  0  0  0  0  0  0  0
    1.1888   -0.5227   11.3767 H   0  0  0  0  0  0  0  0  0  0  0  0
   -2.0153   -8.9656   10.6218 H   0  0  0  0  0  0  0  0  0  0  0  0
   -5.7382   -9.6872   12.3816 H   0  0  0  0  0  0  0  0  0  0  0  0
   -4.6437   -7.7468   13.6327 H   0  0  0  0  0  0  0  0  0  0  0  0
  1  2  2  0
  2  3  1  0
  3  4  1  0
  4  5  1  0
  5  6  2  0
  5  7  1  0
  7  8  1  0
  8  9  1  0
  8 10  1  0
  8 11  1  0
  7 12  1  0
 12 13  1  0
 13 14  1  0
 14 15  1  0
 15 16  1  0
  2 17  1  0
 17 18  2  0
 18 19  1  0
 19 20  2  0
 20 21  1  0
 16  7  1  0
 21 17  1  0
  3 22  1  0
  4 23  1  0
 12 24  1  0
 12 25  1  0
 13 26  1  0
 13 27  1  0
 14 28  1  0
 14 29  1  0
 15 30  1  0
 15 31  1  0
 18 32  1  0
 20 33  1  0
 21 34  1  0
M  END
>  <Energy>  (812) 
97.115007951475988

>  <compound_id>  (812) 
17556

>  <target_id>  (812) 
1

>  <reference_id>  (812) 
80

>  <inspiration_ids>  (812) 
[112, 80]

>  <energy_score>  (812) 
-16.46788301191367

>  <distance_score>  (812) 
16.192146799078557

>  <path>  (812) 
/opt/xchem-fragalysis-2/maxwin/BulkDock/SCRATCH/511014/C17556-P80/C17556-P80.minimised.mol

>  <scratch_subdir>  (812) 
/opt/xchem-fragalysis-2/maxwin/BulkDock/SCRATCH/511014/C17556-P80

>  <fragmenstein_runtime>  (812) 
21.159541606903076

>  <fragmenstein_outcome>  (812) 
too moved

>  <fragmenstein_mode>  (812) 
expansion

>  <fragmenstein_error>  (812) 


$$$$
C17559-P112
     RDKit          3D

 43 44  0  0  0  0  0  0  0  0999 V2000
    0.4282  -17.8222    9.2205 C   0  0  0  0  0  0  0  0  0  0  0  0
   -0.3164  -17.4202   10.4592 N   0  0  0  0  0  0  0  0  0  0  0  0
    0.9759  -16.4269   10.6352 C   0  0  0  0  0  0  0  0  0  0  0  0
    0.9009  -14.7023   11.2909 C   0  0  0  0  0  0  0  0  0  0  0  0
    1.9333  -13.5117   11.9959 N   0  0  0  0  0  0  0  0  0  0  0  0
    3.4570  -12.2447   11.1696 C   0  0  0  0  0  0  0  0  0  0  0  0
    3.6559  -12.2094    9.9437 O   0  0  0  0  0  0  0  0  0  0  0  0
    5.0364  -10.9974   12.3877 C   0  0  0  0  0  0  0  0  0  0  0  0
    5.9390  -12.1348   13.2005 C   0  0  0  0  0  0  0  0  0  0  0  0
    6.4662  -13.2487   12.5308 F   0  0  0  0  0  0  0  0  0  0  0  0
    5.2276  -12.3336   14.2547 F   0  0  0  0  0  0  0  0  0  0  0  0
    7.1125  -11.8294   13.4870 F   0  0  0  0  0  0  0  0  0  0  0  0
    4.1926  -10.1199   13.5990 C   0  0  0  0  0  0  0  0  0  0  0  0
    4.1770   -8.5502   13.5064 C   0  0  0  0  0  0  0  0  0  0  0  0
    5.0968   -7.5064   13.6633 C   0  0  0  0  0  0  0  0  0  0  0  0
    6.3140   -8.1292   14.0033 C   0  0  0  0  0  0  0  0  0  0  0  0
    5.9212  -10.0164   13.7607 O   0  0  0  0  0  0  0  0  0  0  0  0
   -0.7083  -18.5967   11.2010 C   0  0  0  0  0  0  0  0  0  0  0  0
   -0.1372  -19.1928   12.0753 O   0  0  0  0  0  0  0  0  0  0  0  0
   -2.0492  -19.1231   10.8696 C   0  0  0  0  0  0  0  0  0  0  0  0
   -3.0550  -18.7702    9.9880 C   0  0  0  0  0  0  0  0  0  0  0  0
   -4.1746  -19.5719   10.1241 N   0  0  0  0  0  0  0  0  0  0  0  0
   -3.8766  -20.4179   11.0812 C   0  0  0  0  0  0  0  0  0  0  0  0
   -2.6140  -20.1996   11.5510 N   0  0  0  0  0  0  0  0  0  0  0  0
   -0.1672  -18.6305    8.7694 H   0  0  0  0  0  0  0  0  0  0  0  0
    0.4524  -17.0757    8.4178 H   0  0  0  0  0  0  0  0  0  0  0  0
    1.3912  -18.3176    9.4238 H   0  0  0  0  0  0  0  0  0  0  0  0
    1.5266  -16.2524    9.6850 H   0  0  0  0  0  0  0  0  0  0  0  0
    1.6634  -17.0134   11.2364 H   0  0  0  0  0  0  0  0  0  0  0  0
    1.7561  -14.8749   10.6758 H   0  0  0  0  0  0  0  0  0  0  0  0
   -0.1222  -14.3420   11.3005 H   0  0  0  0  0  0  0  0  0  0  0  0
    1.9669  -13.4776   13.0280 H   0  0  0  0  0  0  0  0  0  0  0  0
    3.1893  -10.3970   13.5091 H   0  0  0  0  0  0  0  0  0  0  0  0
    4.3004  -10.5736   14.6013 H   0  0  0  0  0  0  0  0  0  0  0  0
    3.7820   -8.1748   12.5486 H   0  0  0  0  0  0  0  0  0  0  0  0
    3.5241   -8.2379   14.3100 H   0  0  0  0  0  0  0  0  0  0  0  0
    5.4406   -6.8908   12.8250 H   0  0  0  0  0  0  0  0  0  0  0  0
    4.4089   -6.9358   14.3160 H   0  0  0  0  0  0  0  0  0  0  0  0
    6.7261   -7.6848   14.8875 H   0  0  0  0  0  0  0  0  0  0  0  0
    6.9898   -7.7838   13.1822 H   0  0  0  0  0  0  0  0  0  0  0  0
   -3.0396  -17.9619    9.2677 H   0  0  0  0  0  0  0  0  0  0  0  0
   -4.5119  -21.2009   11.4738 H   0  0  0  0  0  0  0  0  0  0  0  0
   -2.1564  -20.7162   12.2919 H   0  0  0  0  0  0  0  0  0  0  0  0
  1  2  1  0
  2  3  1  0
  3  4  1  0
  4  5  1  0
  5  6  1  0
  6  7  2  0
  6  8  1  0
  8  9  1  0
  9 10  1  0
  9 11  1  0
  9 12  1  0
  8 13  1  0
 13 14  1  0
 14 15  1  0
 15 16  1  0
 16 17  1  0
  2 18  1  0
 18 19  2  0
 18 20  1  0
 20 21  2  0
 21 22  1  0
 22 23  2  0
 23 24  1  0
 17  8  1  0
 24 20  1  0
  1 25  1  0
  1 26  1  0
  1 27  1  0
  3 28  1  0
  3 29  1  0
  4 30  1  0
  4 31  1  0
  5 32  1  0
 13 33  1  0
 13 34  1  0
 14 35  1  0
 14 36  1  0
 15 37  1  0
 15 38  1  0
 16 39  1  0
 16 40  1  0
 21 41  1  0
 23 42  1  0
 24 43  1  0
M  END
>  <Energy>  (813) 
1105.1695139263688

>  <compound_id>  (813) 
17559

>  <target_id>  (813) 
1

>  <reference_id>  (813) 
112

>  <inspiration_ids>  (813) 
[112, 80]

>  <energy_score>  (813) 
1029.8739233088293

>  <distance_score>  (813) 
11.046030162951164

>  <path>  (813) 
/opt/xchem-fragalysis-2/maxwin/BulkDock/SCRATCH/511014/C17559-P112/C17559-P112.minimised.mol

>  <scratch_subdir>  (813) 
/opt/xchem-fragalysis-2/maxwin/BulkDock/SCRATCH/511014/C17559-P112

>  <fragmenstein_runtime>  (813) 
20.534576416015625

>  <fragmenstein_outcome>  (813) 
too moved

>  <fragmenstein_mode>  (813) 
expansion

>  <fragmenstein_error>  (813) 


$$$$
C17559-P80
     RDKit          3D

 43 44  0  0  0  0  0  0  0  0999 V2000
    0.4412  -11.2070    4.5110 C   0  0  0  0  0  0  0  0  0  0  0  0
    1.3009  -12.1426    5.2974 N   0  0  0  0  0  0  0  0  0  0  0  0
    2.3182  -10.9112    5.2143 C   0  0  0  0  0  0  0  0  0  0  0  0
    2.3017   -9.9070    6.4249 C   0  0  0  0  0  0  0  0  0  0  0  0
    3.4228   -8.9597    6.6268 N   0  0  0  0  0  0  0  0  0  0  0  0
    3.9396   -8.3385    7.8399 C   0  0  0  0  0  0  0  0  0  0  0  0
    3.6362   -8.5010    8.9904 O   0  0  0  0  0  0  0  0  0  0  0  0
    5.1003   -7.2455    7.5869 C   0  0  0  0  0  0  0  0  0  0  0  0
    6.3581   -8.0039    7.1206 C   0  0  0  0  0  0  0  0  0  0  0  0
    6.1402   -8.5434    5.8882 F   0  0  0  0  0  0  0  0  0  0  0  0
    7.4387   -7.1997    6.9898 F   0  0  0  0  0  0  0  0  0  0  0  0
    6.7266   -9.0195    7.9199 F   0  0  0  0  0  0  0  0  0  0  0  0
    5.3819   -6.4723    8.9202 C   0  0  0  0  0  0  0  0  0  0  0  0
    6.2657   -5.2353    8.7765 C   0  0  0  0  0  0  0  0  0  0  0  0
    5.7408   -4.3512    7.6667 C   0  0  0  0  0  0  0  0  0  0  0  0
    5.4925   -5.1602    6.4014 C   0  0  0  0  0  0  0  0  0  0  0  0
    4.6224   -6.2863    6.6077 O   0  0  0  0  0  0  0  0  0  0  0  0
    1.3375  -13.4461    4.6564 C   0  0  0  0  0  0  0  0  0  0  0  0
    2.0953  -13.8883    3.8350 O   0  0  0  0  0  0  0  0  0  0  0  0
    0.2999  -14.3989    5.1370 C   0  0  0  0  0  0  0  0  0  0  0  0
   -1.0839  -14.4484    5.0051 C   0  0  0  0  0  0  0  0  0  0  0  0
   -1.6326  -15.6261    5.4915 N   0  0  0  0  0  0  0  0  0  0  0  0
   -0.6022  -16.3333    5.8836 C   0  0  0  0  0  0  0  0  0  0  0  0
    0.5705  -15.6534    5.6750 N   0  0  0  0  0  0  0  0  0  0  0  0
    0.7539  -11.1124    3.4601 H   0  0  0  0  0  0  0  0  0  0  0  0
    0.1980  -10.2541    4.9948 H   0  0  0  0  0  0  0  0  0  0  0  0
   -0.5384  -11.6961    4.4340 H   0  0  0  0  0  0  0  0  0  0  0  0
    3.2878  -11.4246    5.2786 H   0  0  0  0  0  0  0  0  0  0  0  0
    2.4275  -10.4136    4.2357 H   0  0  0  0  0  0  0  0  0  0  0  0
    1.4043   -9.2821    6.3920 H   0  0  0  0  0  0  0  0  0  0  0  0
    2.2394  -10.4837    7.3525 H   0  0  0  0  0  0  0  0  0  0  0  0
    3.8562   -8.5191    5.8177 H   0  0  0  0  0  0  0  0  0  0  0  0
    5.8238   -7.1281    9.6682 H   0  0  0  0  0  0  0  0  0  0  0  0
    4.4217   -6.1324    9.3329 H   0  0  0  0  0  0  0  0  0  0  0  0
    7.3025   -5.5249    8.5772 H   0  0  0  0  0  0  0  0  0  0  0  0
    6.2707   -4.6666    9.7102 H   0  0  0  0  0  0  0  0  0  0  0  0
    4.7925   -3.9056    7.9925 H   0  0  0  0  0  0  0  0  0  0  0  0
    6.4369   -3.5299    7.4663 H   0  0  0  0  0  0  0  0  0  0  0  0
    6.4288   -5.4931    5.9440 H   0  0  0  0  0  0  0  0  0  0  0  0
    5.0022   -4.5189    5.6610 H   0  0  0  0  0  0  0  0  0  0  0  0
   -1.7248  -13.6960    4.5654 H   0  0  0  0  0  0  0  0  0  0  0  0
   -0.6293  -17.3290    6.3053 H   0  0  0  0  0  0  0  0  0  0  0  0
    1.4998  -16.0162    5.8326 H   0  0  0  0  0  0  0  0  0  0  0  0
  1  2  1  0
  2  3  1  0
  3  4  1  0
  4  5  1  0
  5  6  1  0
  6  7  2  0
  6  8  1  0
  8  9  1  0
  9 10  1  0
  9 11  1  0
  9 12  1  0
  8 13  1  0
 13 14  1  0
 14 15  1  0
 15 16  1  0
 16 17  1  0
  2 18  1  0
 18 19  2  0
 18 20  1  0
 20 21  2  0
 21 22  1  0
 22 23  2  0
 23 24  1  0
 17  8  1  0
 24 20  1  0
  1 25  1  0
  1 26  1  0
  1 27  1  0
  3 28  1  0
  3 29  1  0
  4 30  1  0
  4 31  1  0
  5 32  1  0
 13 33  1  0
 13 34  1  0
 14 35  1  0
 14 36  1  0
 15 37  1  0
 15 38  1  0
 16 39  1  0
 16 40  1  0
 21 41  1  0
 23 42  1  0
 24 43  1  0
M  END
>  <Energy>  (814) 
130.95613841278859

>  <compound_id>  (814) 
17559

>  <target_id>  (814) 
1

>  <reference_id>  (814) 
80

>  <inspiration_ids>  (814) 
[112, 80]

>  <energy_score>  (814) 
55.660547795243815

>  <distance_score>  (814) 
15.408675602705427

>  <path>  (814) 
/opt/xchem-fragalysis-2/maxwin/BulkDock/SCRATCH/511014/C17559-P80/C17559-P80.minimised.mol

>  <scratch_subdir>  (814) 
/opt/xchem-fragalysis-2/maxwin/BulkDock/SCRATCH/511014/C17559-P80

>  <fragmenstein_runtime>  (814) 
28.938011646270752

>  <fragmenstein_outcome>  (814) 
too moved

>  <fragmenstein_mode>  (814) 
expansion

>  <fragmenstein_error>  (814) 


$$$$
C17563-P112
     RDKit          3D

 49 50  0  0  0  0  0  0  0  0999 V2000
   -2.5062  -17.6295    9.8208 C   0  0  0  0  0  0  0  0  0  0  0  0
   -1.4430  -18.3178   10.6856 C   0  0  0  0  0  0  0  0  0  0  0  0
   -0.1356  -17.3229   10.8517 C   0  0  0  0  0  0  0  0  0  0  0  0
   -0.1893  -15.5318   11.1900 C   0  0  0  0  0  0  0  0  0  0  0  0
    0.6407  -14.4182   12.1433 N   0  0  0  0  0  0  0  0  0  0  0  0
    0.3583  -12.9789   12.4473 C   0  0  0  0  0  0  0  0  0  0  0  0
   -0.4780  -12.2574   12.0232 O   0  0  0  0  0  0  0  0  0  0  0  0
    1.2460  -12.1864   13.6349 C   0  0  0  0  0  0  0  0  0  0  0  0
    1.9836  -10.9493   13.2061 C   0  0  0  0  0  0  0  0  0  0  0  0
    3.4779  -10.4524   14.1687 N   0  0  0  0  0  0  0  0  0  0  0  0
    3.6268  -11.3612   15.2469 C   0  0  0  0  0  0  0  0  0  0  0  0
    2.0925  -12.4329   14.9736 N   0  0  0  0  0  0  0  0  0  0  0  0
   -1.3496  -19.8405   10.2423 C   0  0  0  0  0  0  0  0  0  0  0  0
   -2.4397  -20.6667   11.0011 C   0  0  0  0  0  0  0  0  0  0  0  0
   -2.9278  -21.9203   10.4543 N   0  0  0  0  0  0  0  0  0  0  0  0
   -4.2787  -22.4236   10.2925 C   0  0  0  0  0  0  0  0  0  0  0  0
   -5.3370  -21.8988   10.4959 O   0  0  0  0  0  0  0  0  0  0  0  0
   -4.2928  -23.9339    9.8698 C   0  0  0  0  0  0  0  0  0  0  0  0
   -4.4796  -24.8157   11.1061 C   0  0  0  0  0  0  0  0  0  0  0  0
   -5.9412  -24.9315   11.5415 C   0  0  0  0  0  0  0  0  0  0  0  0
   -6.8974  -25.2003   10.5264 O   0  0  0  0  0  0  0  0  0  0  0  0
   -6.3260  -25.4232    9.2506 C   0  0  0  0  0  0  0  0  0  0  0  0
   -5.3828  -24.2951    8.8357 C   0  0  0  0  0  0  0  0  0  0  0  0
   -2.1694  -17.5680    8.7805 H   0  0  0  0  0  0  0  0  0  0  0  0
   -3.4503  -18.1831    9.8290 H   0  0  0  0  0  0  0  0  0  0  0  0
   -2.7266  -16.6142   10.1599 H   0  0  0  0  0  0  0  0  0  0  0  0
   -1.7721  -18.5178   11.6981 H   0  0  0  0  0  0  0  0  0  0  0  0
    0.5937  -17.7827   11.5227 H   0  0  0  0  0  0  0  0  0  0  0  0
    0.3348  -17.3811    9.8564 H   0  0  0  0  0  0  0  0  0  0  0  0
   -1.1365  -15.0964   10.8863 H   0  0  0  0  0  0  0  0  0  0  0  0
    0.6064  -15.5514   10.4733 H   0  0  0  0  0  0  0  0  0  0  0  0
    1.4567  -14.6884   12.6034 H   0  0  0  0  0  0  0  0  0  0  0  0
    1.9301  -10.6211   12.1210 H   0  0  0  0  0  0  0  0  0  0  0  0
    3.7996  -11.2891   16.3104 H   0  0  0  0  0  0  0  0  0  0  0  0
    1.8634  -13.0033   15.7631 H   0  0  0  0  0  0  0  0  0  0  0  0
   -1.4804  -19.9330    9.1586 H   0  0  0  0  0  0  0  0  0  0  0  0
   -0.3601  -20.2382   10.4930 H   0  0  0  0  0  0  0  0  0  0  0  0
   -2.0604  -20.9034   12.0025 H   0  0  0  0  0  0  0  0  0  0  0  0
   -3.3351  -20.0528   11.1508 H   0  0  0  0  0  0  0  0  0  0  0  0
   -2.2721  -22.6679   10.2665 H   0  0  0  0  0  0  0  0  0  0  0  0
   -3.3196  -24.1662    9.4196 H   0  0  0  0  0  0  0  0  0  0  0  0
   -4.1131  -25.8220   10.8621 H   0  0  0  0  0  0  0  0  0  0  0  0
   -3.8655  -24.4652   11.9426 H   0  0  0  0  0  0  0  0  0  0  0  0
   -6.2597  -24.0136   12.0379 H   0  0  0  0  0  0  0  0  0  0  0  0
   -6.0081  -25.7523   12.2573 H   0  0  0  0  0  0  0  0  0  0  0  0
   -7.1423  -25.5089    8.5256 H   0  0  0  0  0  0  0  0  0  0  0  0
   -5.8039  -26.3875    9.2543 H   0  0  0  0  0  0  0  0  0  0  0  0
   -4.9002  -24.5725    7.8904 H   0  0  0  0  0  0  0  0  0  0  0  0
   -5.9955  -23.4342    8.6077 H   0  0  0  0  0  0  0  0  0  0  0  0
  1  2  1  0
  2  3  1  0
  3  4  1  0
  4  5  1  0
  5  6  1  0
  6  7  2  0
  6  8  1  0
  8  9  2  0
  9 10  1  0
 10 11  2  0
 11 12  1  0
  2 13  1  0
 13 14  1  0
 14 15  1  0
 15 16  1  0
 16 17  2  0
 16 18  1  0
 18 19  1  0
 19 20  1  0
 20 21  1  0
 21 22  1  0
 22 23  1  0
 12  8  1  0
 23 18  1  0
  1 24  1  0
  1 25  1  0
  1 26  1  0
  2 27  1  0
  3 28  1  0
  3 29  1  0
  4 30  1  0
  4 31  1  0
  5 32  1  0
  9 33  1  0
 11 34  1  0
 12 35  1  0
 13 36  1  0
 13 37  1  0
 14 38  1  0
 14 39  1  0
 15 40  1  0
 18 41  1  0
 19 42  1  0
 19 43  1  0
 20 44  1  0
 20 45  1  0
 22 46  1  0
 22 47  1  0
 23 48  1  0
 23 49  1  0
M  END
>  <Energy>  (815) 
265.34465915204117

>  <compound_id>  (815) 
17563

>  <target_id>  (815) 
1

>  <reference_id>  (815) 
112

>  <inspiration_ids>  (815) 
[112, 80]

>  <energy_score>  (815) 
276.7297711650425

>  <distance_score>  (815) 
12.098900081586589

>  <path>  (815) 
/opt/xchem-fragalysis-2/maxwin/BulkDock/SCRATCH/511014/C17563-P112/C17563-P112.minimised.mol

>  <scratch_subdir>  (815) 
/opt/xchem-fragalysis-2/maxwin/BulkDock/SCRATCH/511014/C17563-P112

>  <fragmenstein_runtime>  (815) 
10.820581197738647

>  <fragmenstein_outcome>  (815) 
too moved

>  <fragmenstein_mode>  (815) 
expansion

>  <fragmenstein_error>  (815) 


$$$$
C17563-P80
     RDKit          3D

 49 50  0  0  0  0  0  0  0  0999 V2000
   -7.1845  -16.4727    9.6449 C   0  0  0  0  0  0  0  0  0  0  0  0
   -6.3852  -17.3450   10.6220 C   0  0  0  0  0  0  0  0  0  0  0  0
   -5.0012  -17.7271    9.9526 C   0  0  0  0  0  0  0  0  0  0  0  0
   -4.0155  -18.7153   10.6216 C   0  0  0  0  0  0  0  0  0  0  0  0
   -2.5686  -18.3821   10.5165 N   0  0  0  0  0  0  0  0  0  0  0  0
   -1.8069  -17.7918    9.4400 C   0  0  0  0  0  0  0  0  0  0  0  0
   -2.1614  -17.3485    8.3880 O   0  0  0  0  0  0  0  0  0  0  0  0
   -0.3478  -17.6317    9.7615 C   0  0  0  0  0  0  0  0  0  0  0  0
    0.6716  -17.1671    8.9198 C   0  0  0  0  0  0  0  0  0  0  0  0
    1.8857  -17.0322    9.5508 N   0  0  0  0  0  0  0  0  0  0  0  0
    1.6688  -17.5062   10.7482 C   0  0  0  0  0  0  0  0  0  0  0  0
    0.3446  -17.7828   10.9488 N   0  0  0  0  0  0  0  0  0  0  0  0
   -7.3083  -18.3671   11.3549 C   0  0  0  0  0  0  0  0  0  0  0  0
   -8.6502  -18.9060   10.7543 C   0  0  0  0  0  0  0  0  0  0  0  0
   -8.9746  -20.3107   11.0878 N   0  0  0  0  0  0  0  0  0  0  0  0
   -9.5492  -21.3743   10.2813 C   0  0  0  0  0  0  0  0  0  0  0  0
   -9.9821  -21.3611    9.1566 O   0  0  0  0  0  0  0  0  0  0  0  0
   -9.6708  -22.7137   11.1098 C   0  0  0  0  0  0  0  0  0  0  0  0
  -10.2533  -23.8229   10.2066 C   0  0  0  0  0  0  0  0  0  0  0  0
  -10.4788  -25.1335   10.9500 C   0  0  0  0  0  0  0  0  0  0  0  0
  -11.0092  -24.9860   12.2613 O   0  0  0  0  0  0  0  0  0  0  0  0
  -11.5601  -23.7017   12.5067 C   0  0  0  0  0  0  0  0  0  0  0  0
  -10.4721  -22.6328   12.4197 C   0  0  0  0  0  0  0  0  0  0  0  0
   -6.5884  -15.6151    9.3141 H   0  0  0  0  0  0  0  0  0  0  0  0
   -8.0899  -16.0790   10.1184 H   0  0  0  0  0  0  0  0  0  0  0  0
   -7.4757  -17.0372    8.7537 H   0  0  0  0  0  0  0  0  0  0  0  0
   -6.0672  -16.6636   11.4282 H   0  0  0  0  0  0  0  0  0  0  0  0
   -4.4686  -16.7698    9.8477 H   0  0  0  0  0  0  0  0  0  0  0  0
   -5.1593  -18.0462    8.9148 H   0  0  0  0  0  0  0  0  0  0  0  0
   -4.1289  -19.7135   10.1903 H   0  0  0  0  0  0  0  0  0  0  0  0
   -4.2243  -18.7814   11.6940 H   0  0  0  0  0  0  0  0  0  0  0  0
   -1.9348  -18.7235   11.2179 H   0  0  0  0  0  0  0  0  0  0  0  0
    0.5653  -16.9079    7.8720 H   0  0  0  0  0  0  0  0  0  0  0  0
    2.4113  -17.6856   11.5143 H   0  0  0  0  0  0  0  0  0  0  0  0
   -0.0239  -18.1240   11.8180 H   0  0  0  0  0  0  0  0  0  0  0  0
   -6.6923  -19.1472   11.7978 H   0  0  0  0  0  0  0  0  0  0  0  0
   -7.6627  -17.7482   12.1894 H   0  0  0  0  0  0  0  0  0  0  0  0
   -8.7434  -18.7569    9.6807 H   0  0  0  0  0  0  0  0  0  0  0  0
   -9.4480  -18.3141   11.2020 H   0  0  0  0  0  0  0  0  0  0  0  0
   -8.6417  -20.6988   11.9516 H   0  0  0  0  0  0  0  0  0  0  0  0
   -8.6559  -23.0101   11.3936 H   0  0  0  0  0  0  0  0  0  0  0  0
  -11.2157  -23.4850    9.7985 H   0  0  0  0  0  0  0  0  0  0  0  0
   -9.6113  -24.0039    9.3369 H   0  0  0  0  0  0  0  0  0  0  0  0
   -9.5299  -25.6719   11.0490 H   0  0  0  0  0  0  0  0  0  0  0  0
  -11.1532  -25.7788   10.3769 H   0  0  0  0  0  0  0  0  0  0  0  0
  -11.9911  -23.7302   13.5033 H   0  0  0  0  0  0  0  0  0  0  0  0
  -12.3875  -23.5332   11.8152 H   0  0  0  0  0  0  0  0  0  0  0  0
  -10.8844  -21.6405   12.5959 H   0  0  0  0  0  0  0  0  0  0  0  0
   -9.7692  -22.8057   13.2456 H   0  0  0  0  0  0  0  0  0  0  0  0
  1  2  1  0
  2  3  1  0
  3  4  1  0
  4  5  1  0
  5  6  1  0
  6  7  2  0
  6  8  1  0
  8  9  2  0
  9 10  1  0
 10 11  2  0
 11 12  1  0
  2 13  1  0
 13 14  1  0
 14 15  1  0
 15 16  1  0
 16 17  2  0
 16 18  1  0
 18 19  1  0
 19 20  1  0
 20 21  1  0
 21 22  1  0
 22 23  1  0
 12  8  1  0
 23 18  1  0
  1 24  1  0
  1 25  1  0
  1 26  1  0
  2 27  1  0
  3 28  1  0
  3 29  1  0
  4 30  1  0
  4 31  1  0
  5 32  1  0
  9 33  1  0
 11 34  1  0
 12 35  1  0
 13 36  1  0
 13 37  1  0
 14 38  1  0
 14 39  1  0
 15 40  1  0
 18 41  1  0
 19 42  1  0
 19 43  1  0
 20 44  1  0
 20 45  1  0
 22 46  1  0
 22 47  1  0
 23 48  1  0
 23 49  1  0
M  END
>  <Energy>  (816) 
-0.80364519175874571

>  <compound_id>  (816) 
17563

>  <target_id>  (816) 
1

>  <reference_id>  (816) 
80

>  <inspiration_ids>  (816) 
[112, 80]

>  <energy_score>  (816) 
10.58146682125178

>  <distance_score>  (816) 
12.689919308519066

>  <path>  (816) 
/opt/xchem-fragalysis-2/maxwin/BulkDock/SCRATCH/511014/C17563-P80/C17563-P80.minimised.mol

>  <scratch_subdir>  (816) 
/opt/xchem-fragalysis-2/maxwin/BulkDock/SCRATCH/511014/C17563-P80

>  <fragmenstein_runtime>  (816) 
15.058516502380371

>  <fragmenstein_outcome>  (816) 
too moved

>  <fragmenstein_mode>  (816) 
expansion

>  <fragmenstein_error>  (816) 


$$$$
C17565-P112
     RDKit          3D

 49 50  0  0  0  0  0  0  0  0999 V2000
    1.9815  -16.3124   18.0320 C   0  0  0  0  0  0  0  0  0  0  0  0
    2.3020  -15.1343   17.2441 C   0  0  0  0  0  0  0  0  0  0  0  0
    2.0552  -14.0717   18.1287 N   0  0  0  0  0  0  0  0  0  0  0  0
    0.2859  -14.0819   17.2517 C   0  0  0  0  0  0  0  0  0  0  0  0
   -1.7271  -14.3599   17.5422 C   0  0  0  0  0  0  0  0  0  0  0  0
   -3.1773  -14.6793   16.2759 N   0  0  0  0  0  0  0  0  0  0  0  0
   -3.9050  -16.2454   15.6289 C   0  0  0  0  0  0  0  0  0  0  0  0
   -3.6083  -17.3511   16.0137 O   0  0  0  0  0  0  0  0  0  0  0  0
   -5.1125  -16.3745   14.1318 C   0  0  0  0  0  0  0  0  0  0  0  0
   -5.7787  -15.4554   13.0081 C   0  0  0  0  0  0  0  0  0  0  0  0
   -6.9680  -15.7755   12.4596 N   0  0  0  0  0  0  0  0  0  0  0  0
   -7.0781  -16.9975   12.8170 C   0  0  0  0  0  0  0  0  0  0  0  0
   -6.0470  -17.4009   13.6304 N   0  0  0  0  0  0  0  0  0  0  0  0
    3.3816  -12.8860   18.0269 C   0  0  0  0  0  0  0  0  0  0  0  0
    3.4929  -11.8835   17.3080 O   0  0  0  0  0  0  0  0  0  0  0  0
    4.6910  -13.1955   19.3005 C   0  0  0  0  0  0  0  0  0  0  0  0
    5.1329  -12.8566   20.8214 C   0  0  0  0  0  0  0  0  0  0  0  0
    6.4851  -12.0293   21.2233 C   0  0  0  0  0  0  0  0  0  0  0  0
    6.4503  -11.5372   22.6811 C   0  0  0  0  0  0  0  0  0  0  0  0
    7.7673  -10.8579   23.0939 C   0  0  0  0  0  0  0  0  0  0  0  0
    8.2835   -9.8424   22.0854 C   0  0  0  0  0  0  0  0  0  0  0  0
    7.3345   -9.6707   21.0570 O   0  0  0  0  0  0  0  0  0  0  0  0
    7.0572  -10.8914   20.3548 C   0  0  0  0  0  0  0  0  0  0  0  0
    2.2618  -16.0121   19.0439 H   0  0  0  0  0  0  0  0  0  0  0  0
    0.9315  -16.4829   18.1492 H   0  0  0  0  0  0  0  0  0  0  0  0
    2.5006  -17.1793   17.6135 H   0  0  0  0  0  0  0  0  0  0  0  0
    3.4008  -15.2190   17.2757 H   0  0  0  0  0  0  0  0  0  0  0  0
    2.1902  -15.1194   16.1984 H   0  0  0  0  0  0  0  0  0  0  0  0
   -0.0197  -13.1203   17.5502 H   0  0  0  0  0  0  0  0  0  0  0  0
    0.5782  -14.0017   16.2524 H   0  0  0  0  0  0  0  0  0  0  0  0
   -2.0438  -13.3315   17.7697 H   0  0  0  0  0  0  0  0  0  0  0  0
   -1.8597  -14.9689   18.4364 H   0  0  0  0  0  0  0  0  0  0  0  0
   -3.5053  -13.9464   15.7713 H   0  0  0  0  0  0  0  0  0  0  0  0
   -5.4081  -14.4673   12.8220 H   0  0  0  0  0  0  0  0  0  0  0  0
   -7.8302  -17.6517   12.3971 H   0  0  0  0  0  0  0  0  0  0  0  0
   -5.7946  -18.3650   13.7574 H   0  0  0  0  0  0  0  0  0  0  0  0
    5.4504  -12.4977   18.9623 H   0  0  0  0  0  0  0  0  0  0  0  0
    5.0397  -14.1717   19.0235 H   0  0  0  0  0  0  0  0  0  0  0  0
    5.3620  -13.8283   21.2706 H   0  0  0  0  0  0  0  0  0  0  0  0
    4.3137  -12.5463   21.4604 H   0  0  0  0  0  0  0  0  0  0  0  0
    7.2604  -12.8094   21.2173 H   0  0  0  0  0  0  0  0  0  0  0  0
    6.2544  -12.3793   23.3556 H   0  0  0  0  0  0  0  0  0  0  0  0
    5.6246  -10.8322   22.8202 H   0  0  0  0  0  0  0  0  0  0  0  0
    8.5389  -11.6216   23.2533 H   0  0  0  0  0  0  0  0  0  0  0  0
    7.6306  -10.3742   24.0687 H   0  0  0  0  0  0  0  0  0  0  0  0
    8.4458   -8.8741   22.5698 H   0  0  0  0  0  0  0  0  0  0  0  0
    9.2446  -10.1557   21.6613 H   0  0  0  0  0  0  0  0  0  0  0  0
    6.4036  -10.6640   19.5245 H   0  0  0  0  0  0  0  0  0  0  0  0
    8.0261  -11.1908   19.9505 H   0  0  0  0  0  0  0  0  0  0  0  0
  1  2  1  0
  2  3  1  0
  3  4  1  0
  4  5  1  0
  5  6  1  0
  6  7  1  0
  7  8  2  0
  7  9  1  0
  9 10  2  0
 10 11  1  0
 11 12  2  0
 12 13  1  0
  3 14  1  0
 14 15  2  0
 14 16  1  0
 16 17  1  0
 17 18  1  0
 18 19  1  0
 19 20  1  0
 20 21  1  0
 21 22  1  0
 22 23  1  0
 13  9  1  0
 23 18  1  0
  1 24  1  0
  1 25  1  0
  1 26  1  0
  2 27  1  0
  2 28  1  0
  4 29  1  0
  4 30  1  0
  5 31  1  0
  5 32  1  0
  6 33  1  0
 10 34  1  0
 12 35  1  0
 13 36  1  0
 16 37  1  0
 16 38  1  0
 17 39  1  0
 17 40  1  0
 18 41  1  0
 19 42  1  0
 19 43  1  0
 20 44  1  0
 20 45  1  0
 21 46  1  0
 21 47  1  0
 23 48  1  0
 23 49  1  0
M  END
>  <Energy>  (817) 
578.53954575056139

>  <compound_id>  (817) 
17565

>  <target_id>  (817) 
1

>  <reference_id>  (817) 
112

>  <inspiration_ids>  (817) 
[112, 80]

>  <energy_score>  (817) 
562.9736428028822

>  <distance_score>  (817) 
11.56431577015778

>  <path>  (817) 
/opt/xchem-fragalysis-2/maxwin/BulkDock/SCRATCH/511014/C17565-P112/C17565-P112.minimised.mol

>  <scratch_subdir>  (817) 
/opt/xchem-fragalysis-2/maxwin/BulkDock/SCRATCH/511014/C17565-P112

>  <fragmenstein_runtime>  (817) 
33.44192981719971

>  <fragmenstein_outcome>  (817) 
too moved

>  <fragmenstein_mode>  (817) 
expansion

>  <fragmenstein_error>  (817) 


$$$$
C17565-P80
     RDKit          3D

 49 50  0  0  0  0  0  0  0  0999 V2000
    3.1177  -17.6194   12.0088 C   0  0  0  0  0  0  0  0  0  0  0  0
    2.8188  -16.4350   13.2153 C   0  0  0  0  0  0  0  0  0  0  0  0
    2.0269  -14.3499   12.8137 N   0  0  0  0  0  0  0  0  0  0  0  0
    0.6564  -15.1153   12.3042 C   0  0  0  0  0  0  0  0  0  0  0  0
    0.5735  -16.1970   11.1213 C   0  0  0  0  0  0  0  0  0  0  0  0
    0.6173  -17.6385   11.3734 N   0  0  0  0  0  0  0  0  0  0  0  0
    1.0759  -18.7451   10.5324 C   0  0  0  0  0  0  0  0  0  0  0  0
    1.6040  -18.7399    9.4575 O   0  0  0  0  0  0  0  0  0  0  0  0
    0.8677  -20.0772   11.1743 C   0  0  0  0  0  0  0  0  0  0  0  0
    0.7235  -21.3030   10.5284 C   0  0  0  0  0  0  0  0  0  0  0  0
    0.3441  -22.3060   11.3900 N   0  0  0  0  0  0  0  0  0  0  0  0
    0.3317  -21.7435   12.5714 C   0  0  0  0  0  0  0  0  0  0  0  0
    0.6604  -20.4139   12.5038 N   0  0  0  0  0  0  0  0  0  0  0  0
    3.4334  -13.2766   11.5378 C   0  0  0  0  0  0  0  0  0  0  0  0
    3.4737  -13.1663   10.3097 O   0  0  0  0  0  0  0  0  0  0  0  0
    5.0627  -12.5323   12.7271 C   0  0  0  0  0  0  0  0  0  0  0  0
    6.8206  -12.8227   13.1152 C   0  0  0  0  0  0  0  0  0  0  0  0
    8.2714  -12.4595   12.5372 C   0  0  0  0  0  0  0  0  0  0  0  0
    8.4931  -10.9727   12.1785 C   0  0  0  0  0  0  0  0  0  0  0  0
    8.1690  -10.1655   13.4331 C   0  0  0  0  0  0  0  0  0  0  0  0
    9.1699  -10.5554   14.5491 C   0  0  0  0  0  0  0  0  0  0  0  0
   10.0545  -11.5884   14.1057 O   0  0  0  0  0  0  0  0  0  0  0  0
    9.3643  -12.7616   13.6207 C   0  0  0  0  0  0  0  0  0  0  0  0
    3.0164  -17.2754   10.9800 H   0  0  0  0  0  0  0  0  0  0  0  0
    4.1659  -17.9469   12.0822 H   0  0  0  0  0  0  0  0  0  0  0  0
    2.6067  -18.5276   12.3094 H   0  0  0  0  0  0  0  0  0  0  0  0
    3.4968  -17.0668   14.0209 H   0  0  0  0  0  0  0  0  0  0  0  0
    3.9601  -16.2305   12.8934 H   0  0  0  0  0  0  0  0  0  0  0  0
   -0.0503  -15.0655   13.0844 H   0  0  0  0  0  0  0  0  0  0  0  0
    0.2577  -14.2441   11.7585 H   0  0  0  0  0  0  0  0  0  0  0  0
   -0.3965  -16.0477   10.6435 H   0  0  0  0  0  0  0  0  0  0  0  0
    1.3100  -15.9959   10.3395 H   0  0  0  0  0  0  0  0  0  0  0  0
    0.1474  -18.0081   12.1707 H   0  0  0  0  0  0  0  0  0  0  0  0
    0.8090  -21.4801    9.4626 H   0  0  0  0  0  0  0  0  0  0  0  0
    0.1154  -22.2403   13.5052 H   0  0  0  0  0  0  0  0  0  0  0  0
    0.7245  -19.8029   13.3096 H   0  0  0  0  0  0  0  0  0  0  0  0
    5.5910  -13.4365   12.0280 H   0  0  0  0  0  0  0  0  0  0  0  0
    4.8936  -12.4352   13.8318 H   0  0  0  0  0  0  0  0  0  0  0  0
    6.6775  -11.8467   13.4656 H   0  0  0  0  0  0  0  0  0  0  0  0
    6.8770  -13.5571   13.8909 H   0  0  0  0  0  0  0  0  0  0  0  0
    8.4633  -13.1043   11.6735 H   0  0  0  0  0  0  0  0  0  0  0  0
    7.9276  -10.6554   11.3134 H   0  0  0  0  0  0  0  0  0  0  0  0
    9.5341  -10.8150   11.8646 H   0  0  0  0  0  0  0  0  0  0  0  0
    7.9679   -9.0964   13.2946 H   0  0  0  0  0  0  0  0  0  0  0  0
    7.1473  -10.3120   13.7045 H   0  0  0  0  0  0  0  0  0  0  0  0
    8.7603  -10.8281   15.5183 H   0  0  0  0  0  0  0  0  0  0  0  0
    9.7775   -9.7093   14.8372 H   0  0  0  0  0  0  0  0  0  0  0  0
   10.1376  -13.3881   13.1613 H   0  0  0  0  0  0  0  0  0  0  0  0
    8.9850  -13.3285   14.4746 H   0  0  0  0  0  0  0  0  0  0  0  0
  1  2  1  0
  2  3  1  0
  3  4  1  0
  4  5  1  0
  5  6  1  0
  6  7  1  0
  7  8  2  0
  7  9  1  0
  9 10  2  0
 10 11  1  0
 11 12  2  0
 12 13  1  0
  3 14  1  0
 14 15  2  0
 14 16  1  0
 16 17  1  0
 17 18  1  0
 18 19  1  0
 19 20  1  0
 20 21  1  0
 21 22  1  0
 22 23  1  0
 13  9  1  0
 23 18  1  0
  1 24  1  0
  1 25  1  0
  1 26  1  0
  2 27  1  0
  2 28  1  0
  4 29  1  0
  4 30  1  0
  5 31  1  0
  5 32  1  0
  6 33  1  0
 10 34  1  0
 12 35  1  0
 13 36  1  0
 16 37  1  0
 16 38  1  0
 17 39  1  0
 17 40  1  0
 18 41  1  0
 19 42  1  0
 19 43  1  0
 20 44  1  0
 20 45  1  0
 21 46  1  0
 21 47  1  0
 23 48  1  0
 23 49  1  0
M  END
>  <Energy>  (818) 
893.6021201715472

>  <compound_id>  (818) 
17565

>  <target_id>  (818) 
1

>  <reference_id>  (818) 
80

>  <inspiration_ids>  (818) 
[112, 80]

>  <energy_score>  (818) 
878.0362172238679

>  <distance_score>  (818) 
12.26544792546661

>  <path>  (818) 
/opt/xchem-fragalysis-2/maxwin/BulkDock/SCRATCH/511014/C17565-P80/C17565-P80.minimised.mol

>  <scratch_subdir>  (818) 
/opt/xchem-fragalysis-2/maxwin/BulkDock/SCRATCH/511014/C17565-P80

>  <fragmenstein_runtime>  (818) 
31.6694016456604

>  <fragmenstein_outcome>  (818) 
too moved

>  <fragmenstein_mode>  (818) 
expansion

>  <fragmenstein_error>  (818) 


$$$$
C17566-P112
     RDKit          3D

 49 50  0  0  0  0  0  0  0  0999 V2000
    5.9053  -19.5711    9.5135 C   0  0  0  0  0  0  0  0  0  0  0  0
    5.8128  -18.1336    8.9072 C   0  0  0  0  0  0  0  0  0  0  0  0
    5.3522  -18.3558    7.4425 C   0  0  0  0  0  0  0  0  0  0  0  0
    7.2560  -17.6130    8.8547 C   0  0  0  0  0  0  0  0  0  0  0  0
    4.7988  -17.2726    9.8081 C   0  0  0  0  0  0  0  0  0  0  0  0
    3.2131  -17.3517    9.5704 C   0  0  0  0  0  0  0  0  0  0  0  0
    2.4961  -18.5508    9.1483 N   0  0  0  0  0  0  0  0  0  0  0  0
    1.4551  -18.7318    8.1705 C   0  0  0  0  0  0  0  0  0  0  0  0
    0.9688  -17.9583    7.3976 O   0  0  0  0  0  0  0  0  0  0  0  0
    0.8178  -20.0621    8.1929 C   0  0  0  0  0  0  0  0  0  0  0  0
    1.1018  -21.3170    8.7036 C   0  0  0  0  0  0  0  0  0  0  0  0
    0.0685  -22.2162    8.4766 N   0  0  0  0  0  0  0  0  0  0  0  0
   -0.8509  -21.5356    7.8374 C   0  0  0  0  0  0  0  0  0  0  0  0
   -0.4458  -20.2509    7.6349 N   0  0  0  0  0  0  0  0  0  0  0  0
    5.1063  -16.0717   10.7215 N   0  0  0  0  0  0  0  0  0  0  0  0
    6.1329  -14.6333   10.4553 C   0  0  0  0  0  0  0  0  0  0  0  0
    6.7168  -14.3194    9.4272 O   0  0  0  0  0  0  0  0  0  0  0  0
    6.5565  -13.4303   11.9991 C   0  0  0  0  0  0  0  0  0  0  0  0
    6.3861  -13.3038   13.5659 C   0  0  0  0  0  0  0  0  0  0  0  0
    5.2782  -11.8985   14.3556 C   0  0  0  0  0  0  0  0  0  0  0  0
    5.2947  -10.4591   14.1516 C   0  0  0  0  0  0  0  0  0  0  0  0
    5.7341  -11.0570   12.9876 C   0  0  0  0  0  0  0  0  0  0  0  0
    6.7721  -12.1454   12.8334 O   0  0  0  0  0  0  0  0  0  0  0  0
    6.2872  -19.5468   10.5411 H   0  0  0  0  0  0  0  0  0  0  0  0
    4.9266  -20.0624    9.5261 H   0  0  0  0  0  0  0  0  0  0  0  0
    6.5853  -20.2079    8.9350 H   0  0  0  0  0  0  0  0  0  0  0  0
    5.5155  -17.4834    6.8062 H   0  0  0  0  0  0  0  0  0  0  0  0
    4.3033  -18.6445    7.3686 H   0  0  0  0  0  0  0  0  0  0  0  0
    5.9278  -19.1637    6.9722 H   0  0  0  0  0  0  0  0  0  0  0  0
    7.8500  -18.1835    8.1288 H   0  0  0  0  0  0  0  0  0  0  0  0
    7.3096  -16.5700    8.5423 H   0  0  0  0  0  0  0  0  0  0  0  0
    7.7670  -17.7392    9.8123 H   0  0  0  0  0  0  0  0  0  0  0  0
    4.7971  -17.9588   10.6723 H   0  0  0  0  0  0  0  0  0  0  0  0
    2.8665  -16.5403    8.9287 H   0  0  0  0  0  0  0  0  0  0  0  0
    2.7454  -17.1281   10.5371 H   0  0  0  0  0  0  0  0  0  0  0  0
    2.5953  -19.4035    9.6862 H   0  0  0  0  0  0  0  0  0  0  0  0
    1.9841  -21.6360    9.2441 H   0  0  0  0  0  0  0  0  0  0  0  0
   -1.8075  -21.9103    7.5005 H   0  0  0  0  0  0  0  0  0  0  0  0
   -0.9746  -19.5059    7.2029 H   0  0  0  0  0  0  0  0  0  0  0  0
    4.6769  -16.0248   11.6596 H   0  0  0  0  0  0  0  0  0  0  0  0
    7.5550  -13.4620   11.6147 H   0  0  0  0  0  0  0  0  0  0  0  0
    7.2210  -13.4622   14.2765 H   0  0  0  0  0  0  0  0  0  0  0  0
    5.8439  -14.2758   13.4927 H   0  0  0  0  0  0  0  0  0  0  0  0
    4.6679  -11.8688   15.2680 H   0  0  0  0  0  0  0  0  0  0  0  0
    4.5142  -12.3983   14.0380 H   0  0  0  0  0  0  0  0  0  0  0  0
    4.3226   -9.9782   14.1422 H   0  0  0  0  0  0  0  0  0  0  0  0
    6.0629   -9.7763   14.5099 H   0  0  0  0  0  0  0  0  0  0  0  0
    5.0808  -10.9187   12.2066 H   0  0  0  0  0  0  0  0  0  0  0  0
    6.1954  -10.3219   12.5337 H   0  0  0  0  0  0  0  0  0  0  0  0
  1  2  1  0
  2  3  1  0
  2  4  1  0
  2  5  1  0
  5  6  1  0
  6  7  1  0
  7  8  1  0
  8  9  2  0
  8 10  1  0
 10 11  2  0
 11 12  1  0
 12 13  2  0
 13 14  1  0
  5 15  1  0
 15 16  1  0
 16 17  2  0
 16 18  1  0
 18 19  1  0
 19 20  1  0
 20 21  1  0
 21 22  1  0
 22 23  1  0
 14 10  1  0
 23 18  1  0
  1 24  1  0
  1 25  1  0
  1 26  1  0
  3 27  1  0
  3 28  1  0
  3 29  1  0
  4 30  1  0
  4 31  1  0
  4 32  1  0
  5 33  1  0
  6 34  1  0
  6 35  1  0
  7 36  1  0
 11 37  1  0
 13 38  1  0
 14 39  1  0
 15 40  1  0
 18 41  1  0
 19 42  1  0
 19 43  1  0
 20 44  1  0
 20 45  1  0
 21 46  1  0
 21 47  1  0
 22 48  1  0
 22 49  1  0
M  END
>  <Energy>  (819) 
516.81219124565223

>  <compound_id>  (819) 
17566

>  <target_id>  (819) 
1

>  <reference_id>  (819) 
112

>  <inspiration_ids>  (819) 
[112, 80]

>  <energy_score>  (819) 
447.73831928508264

>  <distance_score>  (819) 
13.445068611525517

>  <path>  (819) 
/opt/xchem-fragalysis-2/maxwin/BulkDock/SCRATCH/511014/C17566-P112/C17566-P112.minimised.mol

>  <scratch_subdir>  (819) 
/opt/xchem-fragalysis-2/maxwin/BulkDock/SCRATCH/511014/C17566-P112

>  <fragmenstein_runtime>  (819) 
27.830718278884888

>  <fragmenstein_outcome>  (819) 
too moved

>  <fragmenstein_mode>  (819) 
expansion

>  <fragmenstein_error>  (819) 


$$$$
C17566-P80
     RDKit          3D

 49 50  0  0  0  0  0  0  0  0999 V2000
    4.7237  -19.3889   12.0722 C   0  0  0  0  0  0  0  0  0  0  0  0
    3.2175  -19.1885   11.7986 C   0  0  0  0  0  0  0  0  0  0  0  0
    2.7745  -20.5669   11.2876 C   0  0  0  0  0  0  0  0  0  0  0  0
    2.9760  -18.2192   10.6386 C   0  0  0  0  0  0  0  0  0  0  0  0
    2.4474  -18.6759   13.1182 C   0  0  0  0  0  0  0  0  0  0  0  0
    0.3412  -19.3717   13.0327 C   0  0  0  0  0  0  0  0  0  0  0  0
   -1.6651  -19.3774   13.7510 N   0  0  0  0  0  0  0  0  0  0  0  0
   -3.4301  -20.1669   13.0187 C   0  0  0  0  0  0  0  0  0  0  0  0
   -3.5617  -20.8769   12.0472 O   0  0  0  0  0  0  0  0  0  0  0  0
   -5.0694  -19.7220   13.6541 C   0  0  0  0  0  0  0  0  0  0  0  0
   -5.9758  -19.2232   12.7437 C   0  0  0  0  0  0  0  0  0  0  0  0
   -6.4315  -17.8253   13.1078 N   0  0  0  0  0  0  0  0  0  0  0  0
   -6.1108  -17.6428   14.3543 C   0  0  0  0  0  0  0  0  0  0  0  0
   -5.5280  -18.8023   14.7587 N   0  0  0  0  0  0  0  0  0  0  0  0
    3.8070  -17.2926   13.9585 N   0  0  0  0  0  0  0  0  0  0  0  0
    4.9513  -15.8638   13.1748 C   0  0  0  0  0  0  0  0  0  0  0  0
    4.8756  -15.9250   12.0372 O   0  0  0  0  0  0  0  0  0  0  0  0
    6.1643  -14.0473   13.6946 C   0  0  0  0  0  0  0  0  0  0  0  0
    6.4244  -12.0627   13.5281 C   0  0  0  0  0  0  0  0  0  0  0  0
    8.1394  -10.9171   14.1916 C   0  0  0  0  0  0  0  0  0  0  0  0
    8.9841  -11.3006   15.4500 C   0  0  0  0  0  0  0  0  0  0  0  0
    8.9890  -12.8313   15.4221 C   0  0  0  0  0  0  0  0  0  0  0  0
    7.5760  -13.8969   14.8619 O   0  0  0  0  0  0  0  0  0  0  0  0
    5.2209  -18.5126   12.4639 H   0  0  0  0  0  0  0  0  0  0  0  0
    4.8812  -20.1892   12.8055 H   0  0  0  0  0  0  0  0  0  0  0  0
    5.2609  -19.6683   11.1578 H   0  0  0  0  0  0  0  0  0  0  0  0
    3.4531  -20.9395   10.5082 H   0  0  0  0  0  0  0  0  0  0  0  0
    1.7957  -20.5296   10.8063 H   0  0  0  0  0  0  0  0  0  0  0  0
    2.8003  -21.3060   12.0928 H   0  0  0  0  0  0  0  0  0  0  0  0
    3.5010  -17.2825   10.7713 H   0  0  0  0  0  0  0  0  0  0  0  0
    3.3328  -18.6345    9.6884 H   0  0  0  0  0  0  0  0  0  0  0  0
    1.9090  -17.9997   10.5221 H   0  0  0  0  0  0  0  0  0  0  0  0
    2.6995  -19.4320   13.8889 H   0  0  0  0  0  0  0  0  0  0  0  0
    0.1975  -18.4353   12.4526 H   0  0  0  0  0  0  0  0  0  0  0  0
    0.2999  -19.8750   12.0837 H   0  0  0  0  0  0  0  0  0  0  0  0
   -1.8203  -18.8816   14.6280 H   0  0  0  0  0  0  0  0  0  0  0  0
   -6.1393  -19.5002   11.7296 H   0  0  0  0  0  0  0  0  0  0  0  0
   -6.2977  -16.7780   14.9749 H   0  0  0  0  0  0  0  0  0  0  0  0
   -5.1634  -18.8973   15.6850 H   0  0  0  0  0  0  0  0  0  0  0  0
    3.9463  -17.2869   14.9623 H   0  0  0  0  0  0  0  0  0  0  0  0
    5.4095  -13.4278   14.1349 H   0  0  0  0  0  0  0  0  0  0  0  0
    5.7628  -11.3922   12.9597 H   0  0  0  0  0  0  0  0  0  0  0  0
    5.5533  -11.7306   14.1851 H   0  0  0  0  0  0  0  0  0  0  0  0
    7.9193   -9.8376   14.1724 H   0  0  0  0  0  0  0  0  0  0  0  0
    9.0503  -10.9371   13.5729 H   0  0  0  0  0  0  0  0  0  0  0  0
   10.0078  -10.9073   15.3796 H   0  0  0  0  0  0  0  0  0  0  0  0
    8.6032  -10.8996   16.3962 H   0  0  0  0  0  0  0  0  0  0  0  0
    9.3760  -13.2047   16.3869 H   0  0  0  0  0  0  0  0  0  0  0  0
    9.8977  -13.0356   14.8746 H   0  0  0  0  0  0  0  0  0  0  0  0
  1  2  1  0
  2  3  1  0
  2  4  1  0
  2  5  1  0
  5  6  1  0
  6  7  1  0
  7  8  1  0
  8  9  2  0
  8 10  1  0
 10 11  2  0
 11 12  1  0
 12 13  2  0
 13 14  1  0
  5 15  1  0
 15 16  1  0
 16 17  2  0
 16 18  1  0
 18 19  1  0
 19 20  1  0
 20 21  1  0
 21 22  1  0
 22 23  1  0
 14 10  1  0
 23 18  1  0
  1 24  1  0
  1 25  1  0
  1 26  1  0
  3 27  1  0
  3 28  1  0
  3 29  1  0
  4 30  1  0
  4 31  1  0
  4 32  1  0
  5 33  1  0
  6 34  1  0
  6 35  1  0
  7 36  1  0
 11 37  1  0
 13 38  1  0
 14 39  1  0
 15 40  1  0
 18 41  1  0
 19 42  1  0
 19 43  1  0
 20 44  1  0
 20 45  1  0
 21 46  1  0
 21 47  1  0
 22 48  1  0
 22 49  1  0
M  END
>  <Energy>  (820) 
1474.9263734620781

>  <compound_id>  (820) 
17566

>  <target_id>  (820) 
1

>  <reference_id>  (820) 
80

>  <inspiration_ids>  (820) 
[112, 80]

>  <energy_score>  (820) 
1405.852501501521

>  <distance_score>  (820) 
10.531214898333342

>  <path>  (820) 
/opt/xchem-fragalysis-2/maxwin/BulkDock/SCRATCH/511014/C17566-P80/C17566-P80.minimised.mol

>  <scratch_subdir>  (820) 
/opt/xchem-fragalysis-2/maxwin/BulkDock/SCRATCH/511014/C17566-P80

>  <fragmenstein_runtime>  (820) 
21.44086265563965

>  <fragmenstein_outcome>  (820) 
too moved

>  <fragmenstein_mode>  (820) 
expansion

>  <fragmenstein_error>  (820) 


$$$$
C17574-P112
     RDKit          3D

 49 50  0  0  0  0  0  0  0  0999 V2000
    7.8570   -6.2642   15.0389 C   0  0  0  0  0  0  0  0  0  0  0  0
    6.2194   -6.4485   15.4029 C   0  0  0  0  0  0  0  0  0  0  0  0
    4.9965   -6.1431   16.5412 C   0  0  0  0  0  0  0  0  0  0  0  0
    3.5777   -6.4390   15.6943 C   0  0  0  0  0  0  0  0  0  0  0  0
    3.3951   -7.7384   14.7334 O   0  0  0  0  0  0  0  0  0  0  0  0
    4.1063   -8.7496   13.3973 C   0  0  0  0  0  0  0  0  0  0  0  0
    3.0766  -10.0790   11.9694 C   0  0  0  0  0  0  0  0  0  0  0  0
    3.3437  -10.1473   10.8002 O   0  0  0  0  0  0  0  0  0  0  0  0
    1.6189  -11.0264   12.6385 N   0  0  0  0  0  0  0  0  0  0  0  0
    0.2481  -12.1650   11.7702 C   0  0  0  0  0  0  0  0  0  0  0  0
   -0.8074  -13.9854   11.8651 C   0  0  0  0  0  0  0  0  0  0  0  0
   -2.7438  -14.4962   11.7812 N   0  0  0  0  0  0  0  0  0  0  0  0
   -4.0049  -14.7756   13.1572 C   0  0  0  0  0  0  0  0  0  0  0  0
   -3.7243  -14.7600   14.3735 O   0  0  0  0  0  0  0  0  0  0  0  0
   -5.6629  -15.1557   12.9604 C   0  0  0  0  0  0  0  0  0  0  0  0
   -6.3439  -15.8968   13.9471 C   0  0  0  0  0  0  0  0  0  0  0  0
   -7.6171  -16.2468   13.5783 N   0  0  0  0  0  0  0  0  0  0  0  0
   -7.7616  -15.7180   12.3904 C   0  0  0  0  0  0  0  0  0  0  0  0
   -6.6494  -15.0175   12.0148 N   0  0  0  0  0  0  0  0  0  0  0  0
   -0.2315  -15.2786   11.2140 C   0  0  0  0  0  0  0  0  0  0  0  0
    0.1983  -16.7475   10.9432 C   0  0  0  0  0  0  0  0  0  0  0  0
    1.0854  -14.8131   11.3945 C   0  0  0  0  0  0  0  0  0  0  0  0
    5.5931   -7.5124   13.8476 C   0  0  0  0  0  0  0  0  0  0  0  0
    8.7758   -6.8746   15.1808 H   0  0  0  0  0  0  0  0  0  0  0  0
    8.3133   -5.4589   14.5071 H   0  0  0  0  0  0  0  0  0  0  0  0
    7.5010   -7.0788   14.5276 H   0  0  0  0  0  0  0  0  0  0  0  0
    6.4646   -5.4376   15.6828 H   0  0  0  0  0  0  0  0  0  0  0  0
    4.8858   -5.1174   16.8888 H   0  0  0  0  0  0  0  0  0  0  0  0
    5.1741   -6.6854   17.4759 H   0  0  0  0  0  0  0  0  0  0  0  0
    2.8255   -6.6077   16.4794 H   0  0  0  0  0  0  0  0  0  0  0  0
    3.2221   -5.5625   15.1448 H   0  0  0  0  0  0  0  0  0  0  0  0
    3.8509   -7.8997   12.7042 H   0  0  0  0  0  0  0  0  0  0  0  0
    1.6113  -10.9371   13.5864 H   0  0  0  0  0  0  0  0  0  0  0  0
   -0.1991  -11.5172   11.0425 H   0  0  0  0  0  0  0  0  0  0  0  0
   -0.3918  -11.8609   12.6032 H   0  0  0  0  0  0  0  0  0  0  0  0
   -0.6231  -14.0278   12.9256 H   0  0  0  0  0  0  0  0  0  0  0  0
   -3.1929  -14.6411   10.8836 H   0  0  0  0  0  0  0  0  0  0  0  0
   -5.9268  -16.2174   14.8944 H   0  0  0  0  0  0  0  0  0  0  0  0
   -8.6357  -15.7952   11.7585 H   0  0  0  0  0  0  0  0  0  0  0  0
   -6.5106  -14.5512   11.1355 H   0  0  0  0  0  0  0  0  0  0  0  0
   -0.9628  -15.2772   10.4459 H   0  0  0  0  0  0  0  0  0  0  0  0
   -0.2920  -17.5259   11.4566 H   0  0  0  0  0  0  0  0  0  0  0  0
    1.2387  -17.0412   11.1365 H   0  0  0  0  0  0  0  0  0  0  0  0
    0.1211  -16.9464    9.8665 H   0  0  0  0  0  0  0  0  0  0  0  0
    1.2419  -13.7612   11.2832 H   0  0  0  0  0  0  0  0  0  0  0  0
    1.7372  -15.3576   10.6911 H   0  0  0  0  0  0  0  0  0  0  0  0
    1.2957  -14.7410   12.3959 H   0  0  0  0  0  0  0  0  0  0  0  0
    5.9650   -7.0474   12.9533 H   0  0  0  0  0  0  0  0  0  0  0  0
    6.3336   -8.2265   14.0652 H   0  0  0  0  0  0  0  0  0  0  0  0
  1  2  1  0
  2  3  1  0
  3  4  1  0
  4  5  1  0
  5  6  1  0
  6  7  1  0
  7  8  2  0
  7  9  1  0
  9 10  1  0
 10 11  1  0
 11 12  1  0
 12 13  1  0
 13 14  2  0
 13 15  1  0
 15 16  2  0
 16 17  1  0
 17 18  2  0
 18 19  1  0
 11 20  1  0
 20 21  1  0
 20 22  1  0
  6 23  1  0
 23  2  1  0
 19 15  1  0
  1 24  1  0
  1 25  1  0
  1 26  1  0
  2 27  1  0
  3 28  1  0
  3 29  1  0
  4 30  1  0
  4 31  1  0
  6 32  1  0
  9 33  1  0
 10 34  1  0
 10 35  1  0
 11 36  1  0
 12 37  1  0
 16 38  1  0
 18 39  1  0
 19 40  1  0
 20 41  1  0
 21 42  1  0
 21 43  1  0
 21 44  1  0
 22 45  1  0
 22 46  1  0
 22 47  1  0
 23 48  1  0
 23 49  1  0
M  END
>  <Energy>  (821) 
1120.5413015635961

>  <compound_id>  (821) 
17574

>  <target_id>  (821) 
1

>  <reference_id>  (821) 
112

>  <inspiration_ids>  (821) 
[112, 80]

>  <energy_score>  (821) 
1072.3647320350062

>  <distance_score>  (821) 
10.668448069106088

>  <path>  (821) 
/opt/xchem-fragalysis-2/maxwin/BulkDock/SCRATCH/511014/C17574-P112/C17574-P112.minimised.mol

>  <scratch_subdir>  (821) 
/opt/xchem-fragalysis-2/maxwin/BulkDock/SCRATCH/511014/C17574-P112

>  <fragmenstein_runtime>  (821) 
23.58956217765808

>  <fragmenstein_outcome>  (821) 
too moved

>  <fragmenstein_mode>  (821) 
expansion

>  <fragmenstein_error>  (821) 


$$$$
C17574-P80
     RDKit          3D

 49 50  0  0  0  0  0  0  0  0999 V2000
    3.2301   -4.6280   17.9092 C   0  0  0  0  0  0  0  0  0  0  0  0
    3.7491   -4.8750   16.4908 C   0  0  0  0  0  0  0  0  0  0  0  0
    4.2991   -3.5892   15.7752 C   0  0  0  0  0  0  0  0  0  0  0  0
    5.9036   -3.7308   15.2803 C   0  0  0  0  0  0  0  0  0  0  0  0
    6.5336   -5.4956   15.7772 O   0  0  0  0  0  0  0  0  0  0  0  0
    5.8960   -6.6917   15.1025 C   0  0  0  0  0  0  0  0  0  0  0  0
    4.8237   -7.8461   13.6713 C   0  0  0  0  0  0  0  0  0  0  0  0
    4.2641   -7.2484   12.8008 O   0  0  0  0  0  0  0  0  0  0  0  0
    4.6778   -9.5047   13.8611 N   0  0  0  0  0  0  0  0  0  0  0  0
    3.8659  -10.4839   13.1851 C   0  0  0  0  0  0  0  0  0  0  0  0
    2.5951  -10.9853   11.6767 C   0  0  0  0  0  0  0  0  0  0  0  0
    1.7286  -12.4650   11.1359 N   0  0  0  0  0  0  0  0  0  0  0  0
    0.5106  -13.3443   11.8852 C   0  0  0  0  0  0  0  0  0  0  0  0
   -0.0832  -13.0928   12.9005 O   0  0  0  0  0  0  0  0  0  0  0  0
    0.1008  -14.7189   11.3690 C   0  0  0  0  0  0  0  0  0  0  0  0
    0.5681  -16.0106   11.6385 C   0  0  0  0  0  0  0  0  0  0  0  0
    0.3156  -16.9301   10.7016 N   0  0  0  0  0  0  0  0  0  0  0  0
   -0.6938  -16.3690   10.1427 C   0  0  0  0  0  0  0  0  0  0  0  0
   -1.0496  -15.1965   10.7983 N   0  0  0  0  0  0  0  0  0  0  0  0
    2.6677  -10.3555   10.4201 C   0  0  0  0  0  0  0  0  0  0  0  0
    3.2108  -11.1682    9.2329 C   0  0  0  0  0  0  0  0  0  0  0  0
    1.1860   -9.8415   10.4918 C   0  0  0  0  0  0  0  0  0  0  0  0
    4.5715   -6.2800   16.4565 C   0  0  0  0  0  0  0  0  0  0  0  0
    3.9677   -4.8239   18.6900 H   0  0  0  0  0  0  0  0  0  0  0  0
    2.8461   -3.6104   18.0300 H   0  0  0  0  0  0  0  0  0  0  0  0
    2.3961   -5.3107   18.1141 H   0  0  0  0  0  0  0  0  0  0  0  0
    2.8344   -5.0861   15.9107 H   0  0  0  0  0  0  0  0  0  0  0  0
    4.0650   -2.6674   16.3260 H   0  0  0  0  0  0  0  0  0  0  0  0
    3.6971   -3.4238   14.8682 H   0  0  0  0  0  0  0  0  0  0  0  0
    6.0110   -3.3441   14.2449 H   0  0  0  0  0  0  0  0  0  0  0  0
    6.7953   -3.0724   15.4851 H   0  0  0  0  0  0  0  0  0  0  0  0
    6.6098   -7.4854   15.0809 H   0  0  0  0  0  0  0  0  0  0  0  0
    5.2728   -9.7870   14.5598 H   0  0  0  0  0  0  0  0  0  0  0  0
    3.3543  -10.7334   14.0899 H   0  0  0  0  0  0  0  0  0  0  0  0
    4.8020  -11.1168   13.1673 H   0  0  0  0  0  0  0  0  0  0  0  0
    1.7044  -10.9054   12.2807 H   0  0  0  0  0  0  0  0  0  0  0  0
    2.0780  -12.9751   10.3529 H   0  0  0  0  0  0  0  0  0  0  0  0
    1.1098  -16.3935   12.4559 H   0  0  0  0  0  0  0  0  0  0  0  0
   -1.2934  -16.7850    9.3392 H   0  0  0  0  0  0  0  0  0  0  0  0
   -1.9257  -14.7230   10.6652 H   0  0  0  0  0  0  0  0  0  0  0  0
    3.4241   -9.6251   10.5798 H   0  0  0  0  0  0  0  0  0  0  0  0
    4.1714  -10.7664    8.9136 H   0  0  0  0  0  0  0  0  0  0  0  0
    2.5853  -11.0504    8.3530 H   0  0  0  0  0  0  0  0  0  0  0  0
    3.3879  -12.2259    9.4134 H   0  0  0  0  0  0  0  0  0  0  0  0
    0.5355  -10.5063   11.0650 H   0  0  0  0  0  0  0  0  0  0  0  0
    1.1743   -8.8703   10.9669 H   0  0  0  0  0  0  0  0  0  0  0  0
    0.5908   -9.6893    9.6081 H   0  0  0  0  0  0  0  0  0  0  0  0
    3.6784   -6.9032   16.3368 H   0  0  0  0  0  0  0  0  0  0  0  0
    5.0819   -6.4248   17.4193 H   0  0  0  0  0  0  0  0  0  0  0  0
  1  2  1  0
  2  3  1  0
  3  4  1  0
  4  5  1  0
  5  6  1  0
  6  7  1  0
  7  8  2  0
  7  9  1  0
  9 10  1  0
 10 11  1  0
 11 12  1  0
 12 13  1  0
 13 14  2  0
 13 15  1  0
 15 16  2  0
 16 17  1  0
 17 18  2  0
 18 19  1  0
 11 20  1  0
 20 21  1  0
 20 22  1  0
  6 23  1  0
 23  2  1  0
 19 15  1  0
  1 24  1  0
  1 25  1  0
  1 26  1  0
  2 27  1  0
  3 28  1  0
  3 29  1  0
  4 30  1  0
  4 31  1  0
  6 32  1  0
  9 33  1  0
 10 34  1  0
 10 35  1  0
 11 36  1  0
 12 37  1  0
 16 38  1  0
 18 39  1  0
 19 40  1  0
 20 41  1  0
 21 42  1  0
 21 43  1  0
 21 44  1  0
 22 45  1  0
 22 46  1  0
 22 47  1  0
 23 48  1  0
 23 49  1  0
M  END
>  <Energy>  (822) 
592.4902640155068

>  <compound_id>  (822) 
17574

>  <target_id>  (822) 
1

>  <reference_id>  (822) 
80

>  <inspiration_ids>  (822) 
[112, 80]

>  <energy_score>  (822) 
544.3136944868833

>  <distance_score>  (822) 
13.104101296363945

>  <path>  (822) 
/opt/xchem-fragalysis-2/maxwin/BulkDock/SCRATCH/511014/C17574-P80/C17574-P80.minimised.mol

>  <scratch_subdir>  (822) 
/opt/xchem-fragalysis-2/maxwin/BulkDock/SCRATCH/511014/C17574-P80

>  <fragmenstein_runtime>  (822) 
33.79947471618652

>  <fragmenstein_outcome>  (822) 
too moved

>  <fragmenstein_mode>  (822) 
expansion

>  <fragmenstein_error>  (822) 


$$$$
C17575-P112
     RDKit          3D

 47 48  0  0  0  0  0  0  0  0999 V2000
    4.6006  -17.6040   10.1766 C   0  0  0  0  0  0  0  0  0  0  0  0
    5.8229  -18.2620    9.5142 C   0  0  0  0  0  0  0  0  0  0  0  0
    6.6809  -17.1854    8.8899 N   0  0  0  0  0  0  0  0  0  0  0  0
    8.1148  -16.9476    8.9594 C   0  0  0  0  0  0  0  0  0  0  0  0
    8.9897  -17.5923    9.4654 O   0  0  0  0  0  0  0  0  0  0  0  0
    8.5185  -15.5474    8.3401 C   0  0  0  0  0  0  0  0  0  0  0  0
    8.9548  -14.3859    9.3224 C   0  0  0  0  0  0  0  0  0  0  0  0
    9.1525  -13.0385    8.5787 C   0  0  0  0  0  0  0  0  0  0  0  0
    9.9124  -11.9764    9.3934 C   0  0  0  0  0  0  0  0  0  0  0  0
   10.0393  -12.3567   10.8569 C   0  0  0  0  0  0  0  0  0  0  0  0
   10.6431  -13.6384   11.0201 O   0  0  0  0  0  0  0  0  0  0  0  0
   10.2555  -14.6680   10.0879 C   0  0  0  0  0  0  0  0  0  0  0  0
    5.2640  -19.3849    8.5542 C   0  0  0  0  0  0  0  0  0  0  0  0
    6.3510  -20.3997    8.1754 C   0  0  0  0  0  0  0  0  0  0  0  0
    6.6568  -21.2464    9.2826 O   0  0  0  0  0  0  0  0  0  0  0  0
    4.0557  -20.1127    9.0863 N   0  0  0  0  0  0  0  0  0  0  0  0
    2.9009  -20.6464    8.4104 C   0  0  0  0  0  0  0  0  0  0  0  0
    2.6447  -20.7170    7.2445 O   0  0  0  0  0  0  0  0  0  0  0  0
    1.8754  -21.2323    9.3094 C   0  0  0  0  0  0  0  0  0  0  0  0
    1.6929  -21.3865   10.6770 C   0  0  0  0  0  0  0  0  0  0  0  0
    0.5328  -22.0819   10.9802 N   0  0  0  0  0  0  0  0  0  0  0  0
   -0.0301  -22.3291    9.8229 C   0  0  0  0  0  0  0  0  0  0  0  0
    0.7084  -21.8058    8.8023 N   0  0  0  0  0  0  0  0  0  0  0  0
    4.2956  -18.1591   11.0699 H   0  0  0  0  0  0  0  0  0  0  0  0
    3.7366  -17.5595    9.5039 H   0  0  0  0  0  0  0  0  0  0  0  0
    4.7958  -16.5779   10.4585 H   0  0  0  0  0  0  0  0  0  0  0  0
    6.4401  -18.7195   10.2962 H   0  0  0  0  0  0  0  0  0  0  0  0
    6.2490  -16.4617    8.3029 H   0  0  0  0  0  0  0  0  0  0  0  0
    7.7000  -15.1813    7.7138 H   0  0  0  0  0  0  0  0  0  0  0  0
    9.3455  -15.7533    7.6474 H   0  0  0  0  0  0  0  0  0  0  0  0
    8.1479  -14.2346   10.0452 H   0  0  0  0  0  0  0  0  0  0  0  0
    9.6967  -13.2098    7.6409 H   0  0  0  0  0  0  0  0  0  0  0  0
    8.1756  -12.6429    8.2819 H   0  0  0  0  0  0  0  0  0  0  0  0
   10.9197  -11.8831    8.9681 H   0  0  0  0  0  0  0  0  0  0  0  0
    9.4297  -10.9990    9.2866 H   0  0  0  0  0  0  0  0  0  0  0  0
    9.0672  -12.3718   11.3580 H   0  0  0  0  0  0  0  0  0  0  0  0
   10.6598  -11.6263   11.3861 H   0  0  0  0  0  0  0  0  0  0  0  0
   11.0879  -14.7950    9.3857 H   0  0  0  0  0  0  0  0  0  0  0  0
   10.1815  -15.5971   10.6596 H   0  0  0  0  0  0  0  0  0  0  0  0
    4.9307  -18.8991    7.6280 H   0  0  0  0  0  0  0  0  0  0  0  0
    6.0145  -21.0388    7.3518 H   0  0  0  0  0  0  0  0  0  0  0  0
    7.2702  -19.8981    7.8583 H   0  0  0  0  0  0  0  0  0  0  0  0
    5.8670  -21.7950    9.4335 H   0  0  0  0  0  0  0  0  0  0  0  0
    3.9707  -20.2951   10.0793 H   0  0  0  0  0  0  0  0  0  0  0  0
    2.3381  -21.0480   11.4783 H   0  0  0  0  0  0  0  0  0  0  0  0
   -0.9600  -22.8574    9.6612 H   0  0  0  0  0  0  0  0  0  0  0  0
    0.4868  -21.8404    7.8164 H   0  0  0  0  0  0  0  0  0  0  0  0
  1  2  1  0
  2  3  1  0
  3  4  1  0
  4  5  2  0
  4  6  1  0
  6  7  1  0
  7  8  1  0
  8  9  1  0
  9 10  1  0
 10 11  1  0
 11 12  1  0
  2 13  1  0
 13 14  1  0
 14 15  1  0
 13 16  1  0
 16 17  1  0
 17 18  2  0
 17 19  1  0
 19 20  2  0
 20 21  1  0
 21 22  2  0
 22 23  1  0
 12  7  1  0
 23 19  1  0
  1 24  1  0
  1 25  1  0
  1 26  1  0
  2 27  1  0
  3 28  1  0
  6 29  1  0
  6 30  1  0
  7 31  1  0
  8 32  1  0
  8 33  1  0
  9 34  1  0
  9 35  1  0
 10 36  1  0
 10 37  1  0
 12 38  1  0
 12 39  1  0
 13 40  1  0
 14 41  1  0
 14 42  1  0
 15 43  1  0
 16 44  1  0
 20 45  1  0
 22 46  1  0
 23 47  1  0
M  END
>  <Energy>  (823) 
15.196702776639103

>  <compound_id>  (823) 
17575

>  <target_id>  (823) 
1

>  <reference_id>  (823) 
112

>  <inspiration_ids>  (823) 
[112, 80]

>  <energy_score>  (823) 
-21.81944044705698

>  <distance_score>  (823) 
13.833148961334677

>  <path>  (823) 
/opt/xchem-fragalysis-2/maxwin/BulkDock/SCRATCH/511014/C17575-P112/C17575-P112.minimised.mol

>  <scratch_subdir>  (823) 
/opt/xchem-fragalysis-2/maxwin/BulkDock/SCRATCH/511014/C17575-P112

>  <fragmenstein_runtime>  (823) 
44.60542845726013

>  <fragmenstein_outcome>  (823) 
too moved

>  <fragmenstein_mode>  (823) 
expansion

>  <fragmenstein_error>  (823) 


$$$$
C17575-P80
     RDKit          3D

 47 48  0  0  0  0  0  0  0  0999 V2000
    5.7775  -18.8894   14.0604 C   0  0  0  0  0  0  0  0  0  0  0  0
    4.2857  -18.7348   14.4101 C   0  0  0  0  0  0  0  0  0  0  0  0
    4.0070  -17.5911   15.3760 N   0  0  0  0  0  0  0  0  0  0  0  0
    4.9875  -16.5232   16.0433 C   0  0  0  0  0  0  0  0  0  0  0  0
    6.1489  -16.3719   15.8287 O   0  0  0  0  0  0  0  0  0  0  0  0
    4.1949  -15.3768   17.5652 C   0  0  0  0  0  0  0  0  0  0  0  0
    4.6339  -15.0154   19.3106 C   0  0  0  0  0  0  0  0  0  0  0  0
    5.0506  -13.5489   19.7023 C   0  0  0  0  0  0  0  0  0  0  0  0
    5.0382  -13.3029   21.1982 C   0  0  0  0  0  0  0  0  0  0  0  0
    6.0664  -14.1991   21.8546 C   0  0  0  0  0  0  0  0  0  0  0  0
    6.4664  -15.2679   21.0035 O   0  0  0  0  0  0  0  0  0  0  0  0
    5.3842  -15.9532   20.3145 C   0  0  0  0  0  0  0  0  0  0  0  0
    3.4185  -19.2965   13.1843 C   0  0  0  0  0  0  0  0  0  0  0  0
    3.1237  -18.3019   12.0582 C   0  0  0  0  0  0  0  0  0  0  0  0
    3.3253  -18.9068   10.7750 O   0  0  0  0  0  0  0  0  0  0  0  0
    2.3059  -20.2582   13.4063 N   0  0  0  0  0  0  0  0  0  0  0  0
    1.4968  -20.9990   12.4698 C   0  0  0  0  0  0  0  0  0  0  0  0
    1.4630  -20.9675   11.2745 O   0  0  0  0  0  0  0  0  0  0  0  0
    0.6341  -22.0299   13.0683 C   0  0  0  0  0  0  0  0  0  0  0  0
    0.7044  -22.8157   14.2043 C   0  0  0  0  0  0  0  0  0  0  0  0
   -0.3616  -23.6945   14.2967 N   0  0  0  0  0  0  0  0  0  0  0  0
   -1.0685  -23.4955   13.2081 C   0  0  0  0  0  0  0  0  0  0  0  0
   -0.4886  -22.5411   12.4232 N   0  0  0  0  0  0  0  0  0  0  0  0
    6.0129  -18.4023   13.1210 H   0  0  0  0  0  0  0  0  0  0  0  0
    6.0206  -19.9504   13.9213 H   0  0  0  0  0  0  0  0  0  0  0  0
    6.4609  -18.5210   14.8243 H   0  0  0  0  0  0  0  0  0  0  0  0
    4.1359  -19.5546   15.1300 H   0  0  0  0  0  0  0  0  0  0  0  0
    3.0586  -17.4201   15.6991 H   0  0  0  0  0  0  0  0  0  0  0  0
    4.2623  -14.3589   17.4737 H   0  0  0  0  0  0  0  0  0  0  0  0
    3.0867  -15.4694   17.5572 H   0  0  0  0  0  0  0  0  0  0  0  0
    3.6211  -14.9405   19.7044 H   0  0  0  0  0  0  0  0  0  0  0  0
    6.0594  -13.2927   19.3988 H   0  0  0  0  0  0  0  0  0  0  0  0
    4.3547  -12.8707   19.2403 H   0  0  0  0  0  0  0  0  0  0  0  0
    5.2407  -12.2536   21.4381 H   0  0  0  0  0  0  0  0  0  0  0  0
    4.0448  -13.5267   21.6042 H   0  0  0  0  0  0  0  0  0  0  0  0
    5.6832  -14.6106   22.7947 H   0  0  0  0  0  0  0  0  0  0  0  0
    6.9682  -13.6271   22.0967 H   0  0  0  0  0  0  0  0  0  0  0  0
    5.8391  -16.8158   19.8288 H   0  0  0  0  0  0  0  0  0  0  0  0
    4.7149  -16.3162   21.0983 H   0  0  0  0  0  0  0  0  0  0  0  0
    4.1168  -20.0041   12.7098 H   0  0  0  0  0  0  0  0  0  0  0  0
    3.8210  -17.4707   12.1106 H   0  0  0  0  0  0  0  0  0  0  0  0
    2.0959  -17.9329   12.0755 H   0  0  0  0  0  0  0  0  0  0  0  0
    2.6270  -19.5910   10.6793 H   0  0  0  0  0  0  0  0  0  0  0  0
    2.0081  -20.4816   14.3492 H   0  0  0  0  0  0  0  0  0  0  0  0
    1.4687  -22.7988   14.9706 H   0  0  0  0  0  0  0  0  0  0  0  0
   -1.9820  -24.0055   12.9296 H   0  0  0  0  0  0  0  0  0  0  0  0
   -0.7885  -22.2705   11.4976 H   0  0  0  0  0  0  0  0  0  0  0  0
  1  2  1  0
  2  3  1  0
  3  4  1  0
  4  5  2  0
  4  6  1  0
  6  7  1  0
  7  8  1  0
  8  9  1  0
  9 10  1  0
 10 11  1  0
 11 12  1  0
  2 13  1  0
 13 14  1  0
 14 15  1  0
 13 16  1  0
 16 17  1  0
 17 18  2  0
 17 19  1  0
 19 20  2  0
 20 21  1  0
 21 22  2  0
 22 23  1  0
 12  7  1  0
 23 19  1  0
  1 24  1  0
  1 25  1  0
  1 26  1  0
  2 27  1  0
  3 28  1  0
  6 29  1  0
  6 30  1  0
  7 31  1  0
  8 32  1  0
  8 33  1  0
  9 34  1  0
  9 35  1  0
 10 36  1  0
 10 37  1  0
 12 38  1  0
 12 39  1  0
 13 40  1  0
 14 41  1  0
 14 42  1  0
 15 43  1  0
 16 44  1  0
 20 45  1  0
 22 46  1  0
 23 47  1  0
M  END
>  <Energy>  (824) 
178.05880009613256

>  <compound_id>  (824) 
17575

>  <target_id>  (824) 
1

>  <reference_id>  (824) 
80

>  <inspiration_ids>  (824) 
[112, 80]

>  <energy_score>  (824) 
141.0426568724369

>  <distance_score>  (824) 
13.453462885556947

>  <path>  (824) 
/opt/xchem-fragalysis-2/maxwin/BulkDock/SCRATCH/511014/C17575-P80/C17575-P80.minimised.mol

>  <scratch_subdir>  (824) 
/opt/xchem-fragalysis-2/maxwin/BulkDock/SCRATCH/511014/C17575-P80

>  <fragmenstein_runtime>  (824) 
32.254915714263916

>  <fragmenstein_outcome>  (824) 
too moved

>  <fragmenstein_mode>  (824) 
expansion

>  <fragmenstein_error>  (824) 


$$$$
C17576-P112
     RDKit          3D

 45 46  0  0  0  0  0  0  0  0999 V2000
    1.6448  -12.4751   14.4426 O   0  0  0  0  0  0  0  0  0  0  0  0
    1.7152  -12.5889   15.6702 C   0  0  0  0  0  0  0  0  0  0  0  0
    3.3145  -11.5519   16.3553 C   0  0  0  0  0  0  0  0  0  0  0  0
    4.3060  -11.1473   15.1739 O   0  0  0  0  0  0  0  0  0  0  0  0
    4.7538  -10.1464   14.0856 C   0  0  0  0  0  0  0  0  0  0  0  0
    6.1581  -10.6617   13.5659 C   0  0  0  0  0  0  0  0  0  0  0  0
    7.6493   -9.7139   13.7319 C   0  0  0  0  0  0  0  0  0  0  0  0
    7.4299   -8.1637   13.6904 C   0  0  0  0  0  0  0  0  0  0  0  0
    6.0884   -7.6307   14.0167 O   0  0  0  0  0  0  0  0  0  0  0  0
    4.7205   -8.3655   13.8291 C   0  0  0  0  0  0  0  0  0  0  0  0
    0.3814  -13.4320   16.7312 N   0  0  0  0  0  0  0  0  0  0  0  0
   -1.3338  -14.0862   16.2558 C   0  0  0  0  0  0  0  0  0  0  0  0
   -2.8848  -14.9979   15.0436 C   0  0  0  0  0  0  0  0  0  0  0  0
   -3.7836  -14.3672   13.2430 C   0  0  0  0  0  0  0  0  0  0  0  0
   -5.1203  -14.7322   12.9350 O   0  0  0  0  0  0  0  0  0  0  0  0
   -3.6270  -16.7425   14.5769 N   0  0  0  0  0  0  0  0  0  0  0  0
   -5.2444  -17.1896   13.9822 C   0  0  0  0  0  0  0  0  0  0  0  0
   -6.1951  -16.4715   13.8604 O   0  0  0  0  0  0  0  0  0  0  0  0
   -5.6369  -18.8626   13.2839 C   0  0  0  0  0  0  0  0  0  0  0  0
   -6.5826  -18.9862   12.1303 C   0  0  0  0  0  0  0  0  0  0  0  0
   -6.7763  -20.2632   11.6875 N   0  0  0  0  0  0  0  0  0  0  0  0
   -5.6595  -20.8149   12.0393 C   0  0  0  0  0  0  0  0  0  0  0  0
   -4.9254  -20.0012   12.8557 N   0  0  0  0  0  0  0  0  0  0  0  0
    3.0762  -10.5953   16.8266 H   0  0  0  0  0  0  0  0  0  0  0  0
    3.7682  -12.0192   17.2387 H   0  0  0  0  0  0  0  0  0  0  0  0
    3.9596  -10.2722   13.4084 H   0  0  0  0  0  0  0  0  0  0  0  0
    6.2623  -11.7532   13.5810 H   0  0  0  0  0  0  0  0  0  0  0  0
    5.9719  -10.6247   12.5544 H   0  0  0  0  0  0  0  0  0  0  0  0
    8.1868   -9.8842   14.6797 H   0  0  0  0  0  0  0  0  0  0  0  0
    8.4874  -10.0432   13.1203 H   0  0  0  0  0  0  0  0  0  0  0  0
    8.1308   -7.6819   14.3641 H   0  0  0  0  0  0  0  0  0  0  0  0
    7.6817   -7.7690   12.7063 H   0  0  0  0  0  0  0  0  0  0  0  0
    3.9260   -7.7827   14.3251 H   0  0  0  0  0  0  0  0  0  0  0  0
    4.2026   -8.0276   12.9521 H   0  0  0  0  0  0  0  0  0  0  0  0
    0.6915  -13.4795   17.6807 H   0  0  0  0  0  0  0  0  0  0  0  0
   -1.1047  -14.0117   15.2438 H   0  0  0  0  0  0  0  0  0  0  0  0
   -1.9585  -13.4433   16.8829 H   0  0  0  0  0  0  0  0  0  0  0  0
   -3.4923  -15.0066   15.9930 H   0  0  0  0  0  0  0  0  0  0  0  0
   -3.9280  -13.3914   13.3913 H   0  0  0  0  0  0  0  0  0  0  0  0
   -3.3714  -14.6160   12.2334 H   0  0  0  0  0  0  0  0  0  0  0  0
   -5.3784  -14.1469   12.2135 H   0  0  0  0  0  0  0  0  0  0  0  0
   -3.0480  -17.5735   14.6490 H   0  0  0  0  0  0  0  0  0  0  0  0
   -7.2359  -18.2051   11.7664 H   0  0  0  0  0  0  0  0  0  0  0  0
   -5.2786  -21.7535   11.6615 H   0  0  0  0  0  0  0  0  0  0  0  0
   -3.9527  -20.1703   13.0396 H   0  0  0  0  0  0  0  0  0  0  0  0
  1  2  2  0
  2  3  1  0
  3  4  1  0
  4  5  1  0
  5  6  1  0
  6  7  1  0
  7  8  1  0
  8  9  1  0
  9 10  1  0
  2 11  1  0
 11 12  1  0
 12 13  1  0
 13 14  1  0
 14 15  1  0
 13 16  1  0
 16 17  1  0
 17 18  2  0
 17 19  1  0
 19 20  2  0
 20 21  1  0
 21 22  2  0
 22 23  1  0
 10  5  1  0
 23 19  1  0
  3 24  1  0
  3 25  1  0
  5 26  1  0
  6 27  1  0
  6 28  1  0
  7 29  1  0
  7 30  1  0
  8 31  1  0
  8 32  1  0
 10 33  1  0
 10 34  1  0
 11 35  1  0
 12 36  1  0
 12 37  1  0
 13 38  1  0
 14 39  1  0
 14 40  1  0
 15 41  1  0
 16 42  1  0
 20 43  1  0
 22 44  1  0
 23 45  1  0
M  END
>  <Energy>  (825) 
913.79697558319629

>  <compound_id>  (825) 
17576

>  <target_id>  (825) 
1

>  <reference_id>  (825) 
112

>  <inspiration_ids>  (825) 
[112, 80]

>  <energy_score>  (825) 
823.3695206875394

>  <distance_score>  (825) 
9.466966668294566

>  <path>  (825) 
/opt/xchem-fragalysis-2/maxwin/BulkDock/SCRATCH/511014/C17576-P112/C17576-P112.minimised.mol

>  <scratch_subdir>  (825) 
/opt/xchem-fragalysis-2/maxwin/BulkDock/SCRATCH/511014/C17576-P112

>  <fragmenstein_runtime>  (825) 
29.416513919830322

>  <fragmenstein_outcome>  (825) 
too moved

>  <fragmenstein_mode>  (825) 
expansion

>  <fragmenstein_error>  (825) 


$$$$
C17576-P80
     RDKit          3D

 45 46  0  0  0  0  0  0  0  0999 V2000
    5.3059  -13.8157   11.5307 O   0  0  0  0  0  0  0  0  0  0  0  0
    4.4800  -12.8893   11.4912 C   0  0  0  0  0  0  0  0  0  0  0  0
    5.0852  -11.2926   12.9171 C   0  0  0  0  0  0  0  0  0  0  0  0
    5.1697   -9.8013   14.0692 O   0  0  0  0  0  0  0  0  0  0  0  0
    6.1533   -8.1106   14.2228 C   0  0  0  0  0  0  0  0  0  0  0  0
    7.7262   -8.2151   14.1723 C   0  0  0  0  0  0  0  0  0  0  0  0
    8.3717   -6.9776   14.7472 C   0  0  0  0  0  0  0  0  0  0  0  0
    7.4946   -5.7515   15.7056 C   0  0  0  0  0  0  0  0  0  0  0  0
    6.8332   -6.2217   16.7278 O   0  0  0  0  0  0  0  0  0  0  0  0
    6.0212   -6.8525   15.9200 C   0  0  0  0  0  0  0  0  0  0  0  0
    3.3399  -12.7279   10.6074 N   0  0  0  0  0  0  0  0  0  0  0  0
    2.8828  -13.5336    9.4593 C   0  0  0  0  0  0  0  0  0  0  0  0
    2.5041  -15.3698    9.2919 C   0  0  0  0  0  0  0  0  0  0  0  0
    1.4735  -16.1350   10.4086 C   0  0  0  0  0  0  0  0  0  0  0  0
    0.2809  -16.7401    9.8507 O   0  0  0  0  0  0  0  0  0  0  0  0
    1.8072  -16.0897    8.2098 N   0  0  0  0  0  0  0  0  0  0  0  0
    2.0735  -17.3624    7.6043 C   0  0  0  0  0  0  0  0  0  0  0  0
    2.9794  -18.1244    7.7587 O   0  0  0  0  0  0  0  0  0  0  0  0
    0.9566  -17.7731    6.7476 C   0  0  0  0  0  0  0  0  0  0  0  0
    0.8223  -18.4697    5.5646 C   0  0  0  0  0  0  0  0  0  0  0  0
   -0.4479  -19.0110    5.4141 N   0  0  0  0  0  0  0  0  0  0  0  0
   -1.0756  -18.7489    6.5342 C   0  0  0  0  0  0  0  0  0  0  0  0
   -0.2952  -17.9894    7.3534 N   0  0  0  0  0  0  0  0  0  0  0  0
    4.1139  -10.7319   13.0919 H   0  0  0  0  0  0  0  0  0  0  0  0
    5.3165  -11.9588   13.7567 H   0  0  0  0  0  0  0  0  0  0  0  0
    6.7258   -8.9354   13.8744 H   0  0  0  0  0  0  0  0  0  0  0  0
    8.2804   -9.0950   14.5921 H   0  0  0  0  0  0  0  0  0  0  0  0
    7.8987   -8.3570   13.0356 H   0  0  0  0  0  0  0  0  0  0  0  0
    8.5191   -5.9631   14.3619 H   0  0  0  0  0  0  0  0  0  0  0  0
    8.3111   -7.0048   13.6925 H   0  0  0  0  0  0  0  0  0  0  0  0
    7.7650   -4.9772   16.3372 H   0  0  0  0  0  0  0  0  0  0  0  0
    8.1736   -4.7085   15.5199 H   0  0  0  0  0  0  0  0  0  0  0  0
    5.8402   -7.4085   16.8551 H   0  0  0  0  0  0  0  0  0  0  0  0
    5.0055   -6.3812   16.0947 H   0  0  0  0  0  0  0  0  0  0  0  0
    2.9238  -11.8189   10.7845 H   0  0  0  0  0  0  0  0  0  0  0  0
    3.9148  -13.7349    9.2164 H   0  0  0  0  0  0  0  0  0  0  0  0
    2.4751  -12.8522    8.7431 H   0  0  0  0  0  0  0  0  0  0  0  0
    3.4872  -15.8504    9.3842 H   0  0  0  0  0  0  0  0  0  0  0  0
    2.0287  -16.9768   10.8394 H   0  0  0  0  0  0  0  0  0  0  0  0
    1.0240  -15.4777   11.1527 H   0  0  0  0  0  0  0  0  0  0  0  0
   -0.0105  -17.4409   10.4694 H   0  0  0  0  0  0  0  0  0  0  0  0
    0.9067  -15.7634    7.9032 H   0  0  0  0  0  0  0  0  0  0  0  0
    1.5956  -18.6682    4.8337 H   0  0  0  0  0  0  0  0  0  0  0  0
   -2.0662  -19.0795    6.8171 H   0  0  0  0  0  0  0  0  0  0  0  0
   -0.5063  -17.7774    8.3258 H   0  0  0  0  0  0  0  0  0  0  0  0
  1  2  2  0
  2  3  1  0
  3  4  1  0
  4  5  1  0
  5  6  1  0
  6  7  1  0
  7  8  1  0
  8  9  1  0
  9 10  1  0
  2 11  1  0
 11 12  1  0
 12 13  1  0
 13 14  1  0
 14 15  1  0
 13 16  1  0
 16 17  1  0
 17 18  2  0
 17 19  1  0
 19 20  2  0
 20 21  1  0
 21 22  2  0
 22 23  1  0
 10  5  1  0
 23 19  1  0
  3 24  1  0
  3 25  1  0
  5 26  1  0
  6 27  1  0
  6 28  1  0
  7 29  1  0
  7 30  1  0
  8 31  1  0
  8 32  1  0
 10 33  1  0
 10 34  1  0
 11 35  1  0
 12 36  1  0
 12 37  1  0
 13 38  1  0
 14 39  1  0
 14 40  1  0
 15 41  1  0
 16 42  1  0
 20 43  1  0
 22 44  1  0
 23 45  1  0
M  END
>  <Energy>  (826) 
1000.0703160864558

>  <compound_id>  (826) 
17576

>  <target_id>  (826) 
1

>  <reference_id>  (826) 
80

>  <inspiration_ids>  (826) 
[112, 80]

>  <energy_score>  (826) 
909.6428611907826

>  <distance_score>  (826) 
12.92589063102705

>  <path>  (826) 
/opt/xchem-fragalysis-2/maxwin/BulkDock/SCRATCH/511014/C17576-P80/C17576-P80.minimised.mol

>  <scratch_subdir>  (826) 
/opt/xchem-fragalysis-2/maxwin/BulkDock/SCRATCH/511014/C17576-P80

>  <fragmenstein_runtime>  (826) 
33.95392918586731

>  <fragmenstein_outcome>  (826) 
too moved

>  <fragmenstein_mode>  (826) 
expansion

>  <fragmenstein_error>  (826) 


$$$$
C17579-P112
     RDKit          3D

 28 29  0  0  0  0  0  0  0  0999 V2000
    7.1650  -13.0235   12.0728 O   0  0  0  0  0  0  0  0  0  0  0  0
    6.3394  -13.0553   12.8876 C   0  0  0  0  0  0  0  0  0  0  0  0
    5.9123  -11.4454   13.7868 N   0  0  0  0  0  0  0  0  0  0  0  0
    6.7442   -9.6209   13.7315 C   0  0  0  0  0  0  0  0  0  0  0  0
    7.1540   -7.8250   12.7512 C   0  0  0  0  0  0  0  0  0  0  0  0
    6.0280   -7.0185   12.7847 O   0  0  0  0  0  0  0  0  0  0  0  0
    5.3164   -7.3750   13.8599 C   0  0  0  0  0  0  0  0  0  0  0  0
    6.4044   -6.7172   15.0831 C   0  0  0  0  0  0  0  0  0  0  0  0
    7.0113   -7.9979   14.6877 C   0  0  0  0  0  0  0  0  0  0  0  0
    8.3831   -9.1377   15.5275 O   0  0  0  0  0  0  0  0  0  0  0  0
    5.8514  -14.7600   13.1159 C   0  0  0  0  0  0  0  0  0  0  0  0
    6.3088  -15.9036   13.8383 C   0  0  0  0  0  0  0  0  0  0  0  0
    5.5033  -17.0095   13.6373 N   0  0  0  0  0  0  0  0  0  0  0  0
    4.9251  -16.7691   12.4915 C   0  0  0  0  0  0  0  0  0  0  0  0
    5.3940  -15.5809   11.9988 N   0  0  0  0  0  0  0  0  0  0  0  0
    5.1281  -11.6134   14.3977 H   0  0  0  0  0  0  0  0  0  0  0  0
    7.6744  -10.0766   14.1270 H   0  0  0  0  0  0  0  0  0  0  0  0
    7.8704   -7.1085   13.1387 H   0  0  0  0  0  0  0  0  0  0  0  0
    7.8370   -7.6102   11.9464 H   0  0  0  0  0  0  0  0  0  0  0  0
    4.9878   -8.4247   13.8960 H   0  0  0  0  0  0  0  0  0  0  0  0
    4.2293   -7.1524   13.9455 H   0  0  0  0  0  0  0  0  0  0  0  0
    5.9325   -6.3684   16.0644 H   0  0  0  0  0  0  0  0  0  0  0  0
    7.3293   -6.1319   15.2039 H   0  0  0  0  0  0  0  0  0  0  0  0
    6.5956   -7.8068   15.5849 H   0  0  0  0  0  0  0  0  0  0  0  0
    8.1098  -10.0710   15.6458 H   0  0  0  0  0  0  0  0  0  0  0  0
    7.0926  -15.9422   14.5900 H   0  0  0  0  0  0  0  0  0  0  0  0
    4.2584  -17.4224   11.9443 H   0  0  0  0  0  0  0  0  0  0  0  0
    5.2092  -15.2095   11.0766 H   0  0  0  0  0  0  0  0  0  0  0  0
  1  2  2  0
  2  3  1  0
  3  4  1  0
  4  5  1  0
  5  6  1  0
  6  7  1  0
  7  8  1  0
  8  9  1  0
  9 10  1  0
  2 11  1  0
 11 12  2  0
 12 13  1  0
 13 14  2  0
 14 15  1  0
  9  4  1  0
 15 11  1  0
  3 16  1  0
  4 17  1  0
  5 18  1  0
  5 19  1  0
  7 20  1  0
  7 21  1  0
  8 22  1  0
  8 23  1  0
  9 24  1  0
 10 25  1  0
 12 26  1  0
 14 27  1  0
 15 28  1  0
M  END
>  <Energy>  (827) 
809.73362503843282

>  <compound_id>  (827) 
17579

>  <target_id>  (827) 
1

>  <reference_id>  (827) 
112

>  <inspiration_ids>  (827) 
[112, 80]

>  <energy_score>  (827) 
790.4309890094937

>  <distance_score>  (827) 
16.4095868997392

>  <path>  (827) 
/opt/xchem-fragalysis-2/maxwin/BulkDock/SCRATCH/511014/C17579-P112/C17579-P112.minimised.mol

>  <scratch_subdir>  (827) 
/opt/xchem-fragalysis-2/maxwin/BulkDock/SCRATCH/511014/C17579-P112

>  <fragmenstein_runtime>  (827) 
8.309079647064209

>  <fragmenstein_outcome>  (827) 
too moved

>  <fragmenstein_mode>  (827) 
expansion

>  <fragmenstein_error>  (827) 


$$$$
C17579-P80
     RDKit          3D

 28 29  0  0  0  0  0  0  0  0999 V2000
   -1.4478   -9.0528    9.0344 O   0  0  0  0  0  0  0  0  0  0  0  0
   -0.6525   -9.4602    9.8302 C   0  0  0  0  0  0  0  0  0  0  0  0
    0.6450   -8.9435   10.2151 N   0  0  0  0  0  0  0  0  0  0  0  0
    1.3614   -7.6860    9.8150 C   0  0  0  0  0  0  0  0  0  0  0  0
    0.8201   -6.3927   10.4847 C   0  0  0  0  0  0  0  0  0  0  0  0
    1.7926   -5.7045   11.2900 O   0  0  0  0  0  0  0  0  0  0  0  0
    2.9309   -5.2487   10.5593 C   0  0  0  0  0  0  0  0  0  0  0  0
    3.4976   -6.3377    9.6653 C   0  0  0  0  0  0  0  0  0  0  0  0
    2.8991   -7.6985   10.0036 C   0  0  0  0  0  0  0  0  0  0  0  0
    3.5413   -8.6686    9.1909 O   0  0  0  0  0  0  0  0  0  0  0  0
   -1.0618  -10.7393   10.4812 C   0  0  0  0  0  0  0  0  0  0  0  0
   -0.4583  -11.7269   11.2463 C   0  0  0  0  0  0  0  0  0  0  0  0
   -1.3233  -12.7602   11.5734 N   0  0  0  0  0  0  0  0  0  0  0  0
   -2.4571  -12.4513   10.9939 C   0  0  0  0  0  0  0  0  0  0  0  0
   -2.3501  -11.2657   10.3226 N   0  0  0  0  0  0  0  0  0  0  0  0
    1.0085   -9.4996   10.9842 H   0  0  0  0  0  0  0  0  0  0  0  0
    1.1362   -7.6136    8.7427 H   0  0  0  0  0  0  0  0  0  0  0  0
    0.4612   -5.6962    9.7169 H   0  0  0  0  0  0  0  0  0  0  0  0
   -0.0347   -6.6224   11.1293 H   0  0  0  0  0  0  0  0  0  0  0  0
    3.6753   -4.9322   11.2949 H   0  0  0  0  0  0  0  0  0  0  0  0
    2.6552   -4.3641    9.9750 H   0  0  0  0  0  0  0  0  0  0  0  0
    4.5896   -6.3643    9.7085 H   0  0  0  0  0  0  0  0  0  0  0  0
    3.2754   -6.0979    8.6166 H   0  0  0  0  0  0  0  0  0  0  0  0
    3.1365   -7.9367   11.0327 H   0  0  0  0  0  0  0  0  0  0  0  0
    3.0735   -9.5103    9.3354 H   0  0  0  0  0  0  0  0  0  0  0  0
    0.5703  -11.7580   11.5777 H   0  0  0  0  0  0  0  0  0  0  0  0
   -3.3697  -13.0315   11.0163 H   0  0  0  0  0  0  0  0  0  0  0  0
   -3.0702  -10.8145    9.7743 H   0  0  0  0  0  0  0  0  0  0  0  0
  1  2  2  0
  2  3  1  0
  3  4  1  0
  4  5  1  0
  5  6  1  0
  6  7  1  0
  7  8  1  0
  8  9  1  0
  9 10  1  0
  2 11  1  0
 11 12  2  0
 12 13  1  0
 13 14  2  0
 14 15  1  0
  9  4  1  0
 15 11  1  0
  3 16  1  0
  4 17  1  0
  5 18  1  0
  5 19  1  0
  7 20  1  0
  7 21  1  0
  8 22  1  0
  8 23  1  0
  9 24  1  0
 10 25  1  0
 12 26  1  0
 14 27  1  0
 15 28  1  0
M  END
>  <Energy>  (828) 
9.3853803186501157

>  <compound_id>  (828) 
17579

>  <target_id>  (828) 
1

>  <reference_id>  (828) 
80

>  <inspiration_ids>  (828) 
[112, 80]

>  <energy_score>  (828) 
-9.917255710290164

>  <distance_score>  (828) 
15.676731681494703

>  <path>  (828) 
/opt/xchem-fragalysis-2/maxwin/BulkDock/SCRATCH/511014/C17579-P80/C17579-P80.minimised.mol

>  <scratch_subdir>  (828) 
/opt/xchem-fragalysis-2/maxwin/BulkDock/SCRATCH/511014/C17579-P80

>  <fragmenstein_runtime>  (828) 
10.119516372680664

>  <fragmenstein_outcome>  (828) 
too moved

>  <fragmenstein_mode>  (828) 
expansion

>  <fragmenstein_error>  (828) 


$$$$
C17581-P112
     RDKit          3D

 29 30  0  0  0  0  0  0  0  0999 V2000
    5.7595  -11.1851   13.4841 N   0  0  0  0  0  0  0  0  0  0  0  0
    5.2592   -9.9116   13.9253 C   0  0  0  0  0  0  0  0  0  0  0  0
    6.4253   -8.2164   14.0629 C   0  0  0  0  0  0  0  0  0  0  0  0
    6.2367   -6.9762   14.6970 C   0  0  0  0  0  0  0  0  0  0  0  0
    5.3738   -7.2398   13.5899 O   0  0  0  0  0  0  0  0  0  0  0  0
    4.1170   -7.9204   13.5385 C   0  0  0  0  0  0  0  0  0  0  0  0
    3.8655   -9.7681   13.2711 C   0  0  0  0  0  0  0  0  0  0  0  0
    2.2168  -10.7643   13.0186 N   0  0  0  0  0  0  0  0  0  0  0  0
    1.2524  -10.9147   11.7048 C   0  0  0  0  0  0  0  0  0  0  0  0
    1.3335  -10.3989   10.6183 O   0  0  0  0  0  0  0  0  0  0  0  0
    0.1244  -11.9558   11.8869 C   0  0  0  0  0  0  0  0  0  0  0  0
   -0.2073  -12.8825   12.8818 C   0  0  0  0  0  0  0  0  0  0  0  0
   -1.3063  -13.6533   12.5598 N   0  0  0  0  0  0  0  0  0  0  0  0
   -1.6597  -13.2394   11.3682 C   0  0  0  0  0  0  0  0  0  0  0  0
   -0.8380  -12.2352   10.9231 N   0  0  0  0  0  0  0  0  0  0  0  0
    5.1980  -11.9244   13.8916 H   0  0  0  0  0  0  0  0  0  0  0  0
    6.6304  -11.3563   13.9692 H   0  0  0  0  0  0  0  0  0  0  0  0
    4.8767  -10.3252   14.8225 H   0  0  0  0  0  0  0  0  0  0  0  0
    7.0107   -7.8678   13.0956 H   0  0  0  0  0  0  0  0  0  0  0  0
    7.1454   -8.1835   14.7657 H   0  0  0  0  0  0  0  0  0  0  0  0
    5.9252   -6.4508   15.6544 H   0  0  0  0  0  0  0  0  0  0  0  0
    7.2768   -6.5882   14.9383 H   0  0  0  0  0  0  0  0  0  0  0  0
    3.7423   -7.4628   12.6113 H   0  0  0  0  0  0  0  0  0  0  0  0
    3.6132   -7.5809   14.4329 H   0  0  0  0  0  0  0  0  0  0  0  0
    3.5666   -9.7925   12.2166 H   0  0  0  0  0  0  0  0  0  0  0  0
    1.8167  -11.2726   13.7924 H   0  0  0  0  0  0  0  0  0  0  0  0
    0.3035  -13.0445   13.8226 H   0  0  0  0  0  0  0  0  0  0  0  0
   -2.4827  -13.6175   10.7766 H   0  0  0  0  0  0  0  0  0  0  0  0
   -0.8894  -11.7672   10.0282 H   0  0  0  0  0  0  0  0  0  0  0  0
  1  2  1  0
  2  3  1  0
  3  4  1  0
  4  5  1  0
  5  6  1  0
  6  7  1  0
  7  8  1  0
  8  9  1  0
  9 10  2  0
  9 11  1  0
 11 12  2  0
 12 13  1  0
 13 14  2  0
 14 15  1  0
  7  2  1  0
 15 11  1  0
  1 16  1  0
  1 17  1  0
  2 18  1  0
  3 19  1  0
  3 20  1  0
  4 21  1  0
  4 22  1  0
  6 23  1  0
  6 24  1  0
  7 25  1  0
  8 26  1  0
 12 27  1  0
 14 28  1  0
 15 29  1  0
M  END
>  <Energy>  (829) 
457.1966723371043

>  <compound_id>  (829) 
17581

>  <target_id>  (829) 
1

>  <reference_id>  (829) 
112

>  <inspiration_ids>  (829) 
[112, 80]

>  <energy_score>  (829) 
433.63095784037847

>  <distance_score>  (829) 
14.841670624192227

>  <path>  (829) 
/opt/xchem-fragalysis-2/maxwin/BulkDock/SCRATCH/511014/C17581-P112/C17581-P112.minimised.mol

>  <scratch_subdir>  (829) 
/opt/xchem-fragalysis-2/maxwin/BulkDock/SCRATCH/511014/C17581-P112

>  <fragmenstein_runtime>  (829) 
8.100138425827026

>  <fragmenstein_outcome>  (829) 
too moved

>  <fragmenstein_mode>  (829) 
expansion

>  <fragmenstein_error>  (829) 


$$$$
C17581-P80
     RDKit          3D

 29 30  0  0  0  0  0  0  0  0999 V2000
    5.5690  -11.2967   13.6587 N   0  0  0  0  0  0  0  0  0  0  0  0
    5.0606  -10.0058   14.0035 C   0  0  0  0  0  0  0  0  0  0  0  0
    6.0798   -8.1910   14.0710 C   0  0  0  0  0  0  0  0  0  0  0  0
    6.0683   -6.7758   15.4333 C   0  0  0  0  0  0  0  0  0  0  0  0
    4.1474   -6.6936   15.0973 O   0  0  0  0  0  0  0  0  0  0  0  0
    3.8322   -8.2633   14.1483 C   0  0  0  0  0  0  0  0  0  0  0  0
    3.5617  -10.2859   14.2788 C   0  0  0  0  0  0  0  0  0  0  0  0
    2.0284  -11.1212   13.4456 N   0  0  0  0  0  0  0  0  0  0  0  0
    0.9682  -12.4306   14.0172 C   0  0  0  0  0  0  0  0  0  0  0  0
    1.0694  -13.1102   15.0299 O   0  0  0  0  0  0  0  0  0  0  0  0
   -0.1775  -12.8975   13.1746 C   0  0  0  0  0  0  0  0  0  0  0  0
   -0.7430  -12.6322   11.9455 C   0  0  0  0  0  0  0  0  0  0  0  0
   -1.8257  -13.4613   11.6785 N   0  0  0  0  0  0  0  0  0  0  0  0
   -1.9379  -14.2468   12.7220 C   0  0  0  0  0  0  0  0  0  0  0  0
   -0.9819  -13.9480   13.6428 N   0  0  0  0  0  0  0  0  0  0  0  0
    6.4738  -11.3743   14.0931 H   0  0  0  0  0  0  0  0  0  0  0  0
    5.0660  -12.0526   14.1165 H   0  0  0  0  0  0  0  0  0  0  0  0
    4.4529   -9.9243   13.1803 H   0  0  0  0  0  0  0  0  0  0  0  0
    5.6335   -7.5906   13.3052 H   0  0  0  0  0  0  0  0  0  0  0  0
    6.9744   -8.1548   13.5020 H   0  0  0  0  0  0  0  0  0  0  0  0
    6.6067   -5.8698   15.6391 H   0  0  0  0  0  0  0  0  0  0  0  0
    5.9590   -6.9797   16.5199 H   0  0  0  0  0  0  0  0  0  0  0  0
    3.9385   -7.9580   13.1114 H   0  0  0  0  0  0  0  0  0  0  0  0
    3.0910   -8.2811   14.9321 H   0  0  0  0  0  0  0  0  0  0  0  0
    3.6959  -10.9102   15.2015 H   0  0  0  0  0  0  0  0  0  0  0  0
    1.7222  -10.8036   12.5193 H   0  0  0  0  0  0  0  0  0  0  0  0
   -0.4304  -11.8908   11.2215 H   0  0  0  0  0  0  0  0  0  0  0  0
   -2.6701  -15.0308   12.8620 H   0  0  0  0  0  0  0  0  0  0  0  0
   -0.8267  -14.4041   14.5330 H   0  0  0  0  0  0  0  0  0  0  0  0
  1  2  1  0
  2  3  1  0
  3  4  1  0
  4  5  1  0
  5  6  1  0
  6  7  1  0
  7  8  1  0
  8  9  1  0
  9 10  2  0
  9 11  1  0
 11 12  2  0
 12 13  1  0
 13 14  2  0
 14 15  1  0
  7  2  1  0
 15 11  1  0
  1 16  1  0
  1 17  1  0
  2 18  1  0
  3 19  1  0
  3 20  1  0
  4 21  1  0
  4 22  1  0
  6 23  1  0
  6 24  1  0
  7 25  1  0
  8 26  1  0
 12 27  1  0
 14 28  1  0
 15 29  1  0
M  END
>  <Energy>  (830) 
632.85799610573838

>  <compound_id>  (830) 
17581

>  <target_id>  (830) 
1

>  <reference_id>  (830) 
80

>  <inspiration_ids>  (830) 
[112, 80]

>  <energy_score>  (830) 
609.2922816090091

>  <distance_score>  (830) 
14.211331667583858

>  <path>  (830) 
/opt/xchem-fragalysis-2/maxwin/BulkDock/SCRATCH/511014/C17581-P80/C17581-P80.minimised.mol

>  <scratch_subdir>  (830) 
/opt/xchem-fragalysis-2/maxwin/BulkDock/SCRATCH/511014/C17581-P80

>  <fragmenstein_runtime>  (830) 
8.085048913955688

>  <fragmenstein_outcome>  (830) 
too moved

>  <fragmenstein_mode>  (830) 
expansion

>  <fragmenstein_error>  (830) 


$$$$
C17582-P112
     RDKit          3D

 27 28  0  0  0  0  0  0  0  0999 V2000
    0.8393  -12.0055   13.0004 O   0  0  0  0  0  0  0  0  0  0  0  0
    0.9749  -12.6480   14.0060 C   0  0  0  0  0  0  0  0  0  0  0  0
    2.1102  -12.6509   15.0719 N   0  0  0  0  0  0  0  0  0  0  0  0
    3.9633  -11.6718   15.1979 C   0  0  0  0  0  0  0  0  0  0  0  0
    3.8510  -11.9040   17.0536 C   0  0  0  0  0  0  0  0  0  0  0  0
    3.0151  -10.9011   17.1951 O   0  0  0  0  0  0  0  0  0  0  0  0
    3.5354  -10.0007   16.4456 C   0  0  0  0  0  0  0  0  0  0  0  0
    4.3781  -10.1550   14.5158 C   0  0  0  0  0  0  0  0  0  0  0  0
    5.6943  -10.8400   14.3518 C   0  0  0  0  0  0  0  0  0  0  0  0
    8.2469  -10.0733   15.1469 Br  0  0  0  0  0  0  0  0  0  0  0  0
   -0.0430  -13.7105   14.2806 C   0  0  0  0  0  0  0  0  0  0  0  0
   -0.2389  -14.6556   15.2827 C   0  0  0  0  0  0  0  0  0  0  0  0
   -1.3316  -15.4715   15.0422 N   0  0  0  0  0  0  0  0  0  0  0  0
   -1.8270  -15.0434   13.9075 C   0  0  0  0  0  0  0  0  0  0  0  0
   -1.0992  -13.9929   13.4178 N   0  0  0  0  0  0  0  0  0  0  0  0
    1.8561  -13.2658   15.8389 H   0  0  0  0  0  0  0  0  0  0  0  0
    4.5423  -12.3341   14.5782 H   0  0  0  0  0  0  0  0  0  0  0  0
    4.5299  -11.9221   17.8591 H   0  0  0  0  0  0  0  0  0  0  0  0
    3.3574  -12.7438   17.6509 H   0  0  0  0  0  0  0  0  0  0  0  0
    4.1339   -9.6780   17.2896 H   0  0  0  0  0  0  0  0  0  0  0  0
    3.0455   -9.0153   16.7200 H   0  0  0  0  0  0  0  0  0  0  0  0
    3.5907  -10.3232   13.8063 H   0  0  0  0  0  0  0  0  0  0  0  0
    4.6099   -9.1861   13.9929 H   0  0  0  0  0  0  0  0  0  0  0  0
    5.9048  -11.3735   13.4300 H   0  0  0  0  0  0  0  0  0  0  0  0
    0.3556  -14.7985   16.1767 H   0  0  0  0  0  0  0  0  0  0  0  0
   -2.6921  -15.4421   13.3950 H   0  0  0  0  0  0  0  0  0  0  0  0
   -1.2669  -13.4945   12.5545 H   0  0  0  0  0  0  0  0  0  0  0  0
  1  2  2  0
  2  3  1  0
  3  4  1  0
  4  5  1  0
  5  6  1  0
  6  7  1  0
  7  8  1  0
  8  9  1  0
  9 10  1  0
  2 11  1  0
 11 12  2  0
 12 13  1  0
 13 14  2  0
 14 15  1  0
  9  4  1  0
 15 11  1  0
  3 16  1  0
  4 17  1  0
  5 18  1  0
  5 19  1  0
  7 20  1  0
  7 21  1  0
  8 22  1  0
  8 23  1  0
  9 24  1  0
 12 25  1  0
 14 26  1  0
 15 27  1  0
M  END
>  <Energy>  (831) 
790.96411248480001

>  <compound_id>  (831) 
17582

>  <target_id>  (831) 
1

>  <reference_id>  (831) 
112

>  <inspiration_ids>  (831) 
[112, 80]

>  <energy_score>  (831) 
784.9553719612846

>  <distance_score>  (831) 
14.395210697554836

>  <path>  (831) 
/opt/xchem-fragalysis-2/maxwin/BulkDock/SCRATCH/511014/C17582-P112/C17582-P112.minimised.mol

>  <scratch_subdir>  (831) 
/opt/xchem-fragalysis-2/maxwin/BulkDock/SCRATCH/511014/C17582-P112

>  <fragmenstein_runtime>  (831) 
8.00974178314209

>  <fragmenstein_outcome>  (831) 
too moved

>  <fragmenstein_mode>  (831) 
expansion

>  <fragmenstein_error>  (831) 


$$$$
C17582-P80
     RDKit          3D

 27 28  0  0  0  0  0  0  0  0999 V2000
    1.9254  -15.1673   15.9960 O   0  0  0  0  0  0  0  0  0  0  0  0
    1.3897  -14.1655   15.5114 C   0  0  0  0  0  0  0  0  0  0  0  0
    2.0374  -12.6647   15.1286 N   0  0  0  0  0  0  0  0  0  0  0  0
    4.0686  -11.9275   15.1848 C   0  0  0  0  0  0  0  0  0  0  0  0
    3.7240  -10.7207   15.6950 C   0  0  0  0  0  0  0  0  0  0  0  0
    3.6161  -10.1988   14.1988 O   0  0  0  0  0  0  0  0  0  0  0  0
    4.2474   -8.6910   13.7754 C   0  0  0  0  0  0  0  0  0  0  0  0
    5.6698   -8.7456   14.0690 C   0  0  0  0  0  0  0  0  0  0  0  0
    5.7124  -10.7497   14.3675 C   0  0  0  0  0  0  0  0  0  0  0  0
    8.3211  -10.5049   15.2743 Br  0  0  0  0  0  0  0  0  0  0  0  0
   -0.0206  -14.3860   15.1268 C   0  0  0  0  0  0  0  0  0  0  0  0
   -0.9821  -13.7640   14.3554 C   0  0  0  0  0  0  0  0  0  0  0  0
   -2.1563  -14.4998   14.2781 N   0  0  0  0  0  0  0  0  0  0  0  0
   -1.9319  -15.5855   14.9772 C   0  0  0  0  0  0  0  0  0  0  0  0
   -0.6758  -15.5625   15.5054 N   0  0  0  0  0  0  0  0  0  0  0  0
    1.3352  -12.1019   14.6666 H   0  0  0  0  0  0  0  0  0  0  0  0
    4.3662  -12.1911   16.1622 H   0  0  0  0  0  0  0  0  0  0  0  0
    3.6841  -10.1047   16.6237 H   0  0  0  0  0  0  0  0  0  0  0  0
    3.0798  -11.2064   16.3785 H   0  0  0  0  0  0  0  0  0  0  0  0
    3.9247   -8.3642   12.8150 H   0  0  0  0  0  0  0  0  0  0  0  0
    3.7742   -7.9387   14.3854 H   0  0  0  0  0  0  0  0  0  0  0  0
    6.3189   -8.1111   13.3609 H   0  0  0  0  0  0  0  0  0  0  0  0
    6.3538   -8.0353   14.6372 H   0  0  0  0  0  0  0  0  0  0  0  0
    5.8473  -11.2992   13.4491 H   0  0  0  0  0  0  0  0  0  0  0  0
   -0.8952  -12.8266   13.8238 H   0  0  0  0  0  0  0  0  0  0  0  0
   -2.6200  -16.4059   15.1307 H   0  0  0  0  0  0  0  0  0  0  0  0
   -0.2374  -16.2814   16.0658 H   0  0  0  0  0  0  0  0  0  0  0  0
  1  2  2  0
  2  3  1  0
  3  4  1  0
  4  5  1  0
  5  6  1  0
  6  7  1  0
  7  8  1  0
  8  9  1  0
  9 10  1  0
  2 11  1  0
 11 12  2  0
 12 13  1  0
 13 14  2  0
 14 15  1  0
  9  4  1  0
 15 11  1  0
  3 16  1  0
  4 17  1  0
  5 18  1  0
  5 19  1  0
  7 20  1  0
  7 21  1  0
  8 22  1  0
  8 23  1  0
  9 24  1  0
 12 25  1  0
 14 26  1  0
 15 27  1  0
M  END
>  <Energy>  (832) 
713.45317716547481

>  <compound_id>  (832) 
17582

>  <target_id>  (832) 
1

>  <reference_id>  (832) 
80

>  <inspiration_ids>  (832) 
[112, 80]

>  <energy_score>  (832) 
707.4444366419552

>  <distance_score>  (832) 
13.923338269911923

>  <path>  (832) 
/opt/xchem-fragalysis-2/maxwin/BulkDock/SCRATCH/511014/C17582-P80/C17582-P80.minimised.mol

>  <scratch_subdir>  (832) 
/opt/xchem-fragalysis-2/maxwin/BulkDock/SCRATCH/511014/C17582-P80

>  <fragmenstein_runtime>  (832) 
6.967298984527588

>  <fragmenstein_outcome>  (832) 
too moved

>  <fragmenstein_mode>  (832) 
expansion

>  <fragmenstein_error>  (832) 


$$$$
C17583-P112
     RDKit          3D

 27 28  0  0  0  0  0  0  0  0999 V2000
    4.2005   -9.7448   10.0845 O   0  0  0  0  0  0  0  0  0  0  0  0
    4.3221  -10.6360   10.9364 C   0  0  0  0  0  0  0  0  0  0  0  0
    5.8334  -10.4809   12.3126 N   0  0  0  0  0  0  0  0  0  0  0  0
    7.4693   -9.0476   12.5018 C   0  0  0  0  0  0  0  0  0  0  0  0
    8.8393  -10.1821   13.8534 C   0  0  0  0  0  0  0  0  0  0  0  0
   10.6271  -10.3418   13.3047 O   0  0  0  0  0  0  0  0  0  0  0  0
   11.4537   -9.8405   11.7852 C   0  0  0  0  0  0  0  0  0  0  0  0
   10.6880   -8.6502   10.4382 C   0  0  0  0  0  0  0  0  0  0  0  0
    8.8075   -8.2097   10.9090 C   0  0  0  0  0  0  0  0  0  0  0  0
    8.2927   -7.1431    9.2495 Cl  0  0  0  0  0  0  0  0  0  0  0  0
    3.2783  -11.8049   10.6111 C   0  0  0  0  0  0  0  0  0  0  0  0
    3.3867  -13.0808   10.0312 C   0  0  0  0  0  0  0  0  0  0  0  0
    2.1528  -13.6714    9.8034 N   0  0  0  0  0  0  0  0  0  0  0  0
    1.2842  -12.7067    9.9862 C   0  0  0  0  0  0  0  0  0  0  0  0
    1.9195  -11.5359   10.3196 N   0  0  0  0  0  0  0  0  0  0  0  0
    5.7438  -11.2466   12.9980 H   0  0  0  0  0  0  0  0  0  0  0  0
    7.1379   -7.9469   12.8795 H   0  0  0  0  0  0  0  0  0  0  0  0
    8.6909  -10.8302   14.6639 H   0  0  0  0  0  0  0  0  0  0  0  0
    9.2830   -9.6507   14.7884 H   0  0  0  0  0  0  0  0  0  0  0  0
   12.4413   -9.5116   12.0787 H   0  0  0  0  0  0  0  0  0  0  0  0
   11.5953  -10.8013   11.2729 H   0  0  0  0  0  0  0  0  0  0  0  0
   10.6460   -9.2702    9.5271 H   0  0  0  0  0  0  0  0  0  0  0  0
   11.3150   -7.7746   10.2187 H   0  0  0  0  0  0  0  0  0  0  0  0
    8.6892   -8.9749   10.1355 H   0  0  0  0  0  0  0  0  0  0  0  0
    4.2990  -13.6239    9.8194 H   0  0  0  0  0  0  0  0  0  0  0  0
    0.2119  -12.7719    9.8615 H   0  0  0  0  0  0  0  0  0  0  0  0
    1.4898  -10.6311   10.4576 H   0  0  0  0  0  0  0  0  0  0  0  0
  1  2  2  0
  2  3  1  0
  3  4  1  0
  4  5  1  0
  5  6  1  0
  6  7  1  0
  7  8  1  0
  8  9  1  0
  9 10  1  0
  2 11  1  0
 11 12  2  0
 12 13  1  0
 13 14  2  0
 14 15  1  0
  9  4  1  0
 15 11  1  0
  3 16  1  0
  4 17  1  0
  5 18  1  0
  5 19  1  0
  7 20  1  0
  7 21  1  0
  8 22  1  0
  8 23  1  0
  9 24  1  0
 12 25  1  0
 14 26  1  0
 15 27  1  0
M  END
>  <Energy>  (833) 
899.54029121176154

>  <compound_id>  (833) 
17583

>  <target_id>  (833) 
1

>  <reference_id>  (833) 
112

>  <inspiration_ids>  (833) 
[112, 80]

>  <energy_score>  (833) 
894.4600174993759

>  <distance_score>  (833) 
16.508251046568077

>  <path>  (833) 
/opt/xchem-fragalysis-2/maxwin/BulkDock/SCRATCH/511014/C17583-P112/C17583-P112.minimised.mol

>  <scratch_subdir>  (833) 
/opt/xchem-fragalysis-2/maxwin/BulkDock/SCRATCH/511014/C17583-P112

>  <fragmenstein_runtime>  (833) 
11.567582368850708

>  <fragmenstein_outcome>  (833) 
too moved

>  <fragmenstein_mode>  (833) 
expansion

>  <fragmenstein_error>  (833) 


$$$$
C17583-P80
     RDKit          3D

 27 28  0  0  0  0  0  0  0  0999 V2000
   -0.9909   -8.3711    8.7983 O   0  0  0  0  0  0  0  0  0  0  0  0
   -0.2281   -8.8439    9.5901 C   0  0  0  0  0  0  0  0  0  0  0  0
    1.1371   -8.4834    9.9149 N   0  0  0  0  0  0  0  0  0  0  0  0
    2.0583   -7.4778    9.3004 C   0  0  0  0  0  0  0  0  0  0  0  0
    3.5041   -7.9893    9.1619 C   0  0  0  0  0  0  0  0  0  0  0  0
    4.5123   -6.9767    9.2475 O   0  0  0  0  0  0  0  0  0  0  0  0
    4.2595   -5.8549    8.4089 C   0  0  0  0  0  0  0  0  0  0  0  0
    2.9067   -5.2000    8.7034 C   0  0  0  0  0  0  0  0  0  0  0  0
    2.0795   -5.9815    9.7383 C   0  0  0  0  0  0  0  0  0  0  0  0
    2.8361   -5.6127   11.3137 Cl  0  0  0  0  0  0  0  0  0  0  0  0
   -0.7495  -10.0665   10.2763 C   0  0  0  0  0  0  0  0  0  0  0  0
   -0.1958  -11.1455   10.9541 C   0  0  0  0  0  0  0  0  0  0  0  0
   -1.1351  -12.0990   11.3147 N   0  0  0  0  0  0  0  0  0  0  0  0
   -2.2710  -11.6512   10.8408 C   0  0  0  0  0  0  0  0  0  0  0  0
   -2.0935  -10.4521   10.2068 N   0  0  0  0  0  0  0  0  0  0  0  0
    1.4525   -9.0500   10.7002 H   0  0  0  0  0  0  0  0  0  0  0  0
    1.6648   -7.4390    8.2730 H   0  0  0  0  0  0  0  0  0  0  0  0
    3.6273   -8.5259    8.2132 H   0  0  0  0  0  0  0  0  0  0  0  0
    3.6874   -8.7178    9.9483 H   0  0  0  0  0  0  0  0  0  0  0  0
    4.3074   -6.1792    7.3625 H   0  0  0  0  0  0  0  0  0  0  0  0
    5.0678   -5.1313    8.5511 H   0  0  0  0  0  0  0  0  0  0  0  0
    2.3440   -5.1364    7.7627 H   0  0  0  0  0  0  0  0  0  0  0  0
    3.0533   -4.1568    9.0117 H   0  0  0  0  0  0  0  0  0  0  0  0
    1.0581   -5.5899    9.7808 H   0  0  0  0  0  0  0  0  0  0  0  0
    0.8493  -11.3015   11.1834 H   0  0  0  0  0  0  0  0  0  0  0  0
   -3.2342  -12.1382   10.9141 H   0  0  0  0  0  0  0  0  0  0  0  0
   -2.8017   -9.9172    9.7228 H   0  0  0  0  0  0  0  0  0  0  0  0
  1  2  2  0
  2  3  1  0
  3  4  1  0
  4  5  1  0
  5  6  1  0
  6  7  1  0
  7  8  1  0
  8  9  1  0
  9 10  1  0
  2 11  1  0
 11 12  2  0
 12 13  1  0
 13 14  2  0
 14 15  1  0
  9  4  1  0
 15 11  1  0
  3 16  1  0
  4 17  1  0
  5 18  1  0
  5 19  1  0
  7 20  1  0
  7 21  1  0
  8 22  1  0
  8 23  1  0
  9 24  1  0
 12 25  1  0
 14 26  1  0
 15 27  1  0
M  END
>  <Energy>  (834) 
9.8295630769177933

>  <compound_id>  (834) 
17583

>  <target_id>  (834) 
1

>  <reference_id>  (834) 
80

>  <inspiration_ids>  (834) 
[112, 80]

>  <energy_score>  (834) 
4.749289364534832

>  <distance_score>  (834) 
16.09943946326835

>  <path>  (834) 
/opt/xchem-fragalysis-2/maxwin/BulkDock/SCRATCH/511014/C17583-P80/C17583-P80.minimised.mol

>  <scratch_subdir>  (834) 
/opt/xchem-fragalysis-2/maxwin/BulkDock/SCRATCH/511014/C17583-P80

>  <fragmenstein_runtime>  (834) 
7.124519109725952

>  <fragmenstein_outcome>  (834) 
too moved

>  <fragmenstein_mode>  (834) 
expansion

>  <fragmenstein_error>  (834) 


$$$$
C17585-P112
     RDKit          3D

 46 47  0  0  0  0  0  0  0  0999 V2000
  -10.3158  -20.9592   13.4690 C   0  0  0  0  0  0  0  0  0  0  0  0
  -10.2022  -19.3912   13.2944 C   0  0  0  0  0  0  0  0  0  0  0  0
   -9.3933  -19.1159   12.3537 O   0  0  0  0  0  0  0  0  0  0  0  0
  -10.8169  -18.2476   14.0020 O   0  0  0  0  0  0  0  0  0  0  0  0
  -10.5040  -16.6497   13.5056 C   0  0  0  0  0  0  0  0  0  0  0  0
  -11.3613  -15.1375   13.7180 C   0  0  0  0  0  0  0  0  0  0  0  0
  -10.7438  -14.0758   12.8234 C   0  0  0  0  0  0  0  0  0  0  0  0
  -10.8893  -14.1734   11.6416 O   0  0  0  0  0  0  0  0  0  0  0  0
   -9.9821  -13.1475   13.5971 N   0  0  0  0  0  0  0  0  0  0  0  0
   -9.0766  -12.1008   13.1973 C   0  0  0  0  0  0  0  0  0  0  0  0
   -9.4257  -10.8605   12.3321 C   0  0  0  0  0  0  0  0  0  0  0  0
   -8.1148  -10.0308   12.3398 N   0  0  0  0  0  0  0  0  0  0  0  0
   -7.8067   -8.7382   11.7744 C   0  0  0  0  0  0  0  0  0  0  0  0
   -8.4638   -8.0120   11.0869 O   0  0  0  0  0  0  0  0  0  0  0  0
   -6.4353   -8.2374   12.1267 C   0  0  0  0  0  0  0  0  0  0  0  0
   -5.4032   -8.6305   12.9759 C   0  0  0  0  0  0  0  0  0  0  0  0
   -4.3325   -7.7483   12.9690 N   0  0  0  0  0  0  0  0  0  0  0  0
   -4.6593   -6.8231   12.1063 C   0  0  0  0  0  0  0  0  0  0  0  0
   -5.8995   -7.0652   11.5846 N   0  0  0  0  0  0  0  0  0  0  0  0
   -9.8645  -11.2866   10.9159 C   0  0  0  0  0  0  0  0  0  0  0  0
  -11.3902  -11.3995   10.7413 C   0  0  0  0  0  0  0  0  0  0  0  0
  -12.0702  -11.7488   11.9407 O   0  0  0  0  0  0  0  0  0  0  0  0
  -11.9171  -10.8006   12.9830 C   0  0  0  0  0  0  0  0  0  0  0  0
  -10.5686  -10.0732   12.9885 C   0  0  0  0  0  0  0  0  0  0  0  0
   -9.5667  -21.4189   12.7856 H   0  0  0  0  0  0  0  0  0  0  0  0
   -9.9447  -21.3364   14.4229 H   0  0  0  0  0  0  0  0  0  0  0  0
  -11.1568  -21.4592   13.0290 H   0  0  0  0  0  0  0  0  0  0  0  0
   -9.4345  -16.5875   13.5907 H   0  0  0  0  0  0  0  0  0  0  0  0
  -10.7729  -16.7075   12.5099 H   0  0  0  0  0  0  0  0  0  0  0  0
  -12.3983  -15.0798   13.3755 H   0  0  0  0  0  0  0  0  0  0  0  0
  -11.5941  -14.7742   14.7154 H   0  0  0  0  0  0  0  0  0  0  0  0
  -10.0252  -13.4149   14.5636 H   0  0  0  0  0  0  0  0  0  0  0  0
   -8.2088  -12.6046   12.7604 H   0  0  0  0  0  0  0  0  0  0  0  0
   -8.7635  -11.6836   14.1575 H   0  0  0  0  0  0  0  0  0  0  0  0
   -7.2894  -10.3942   12.8019 H   0  0  0  0  0  0  0  0  0  0  0  0
   -5.3682   -9.4990   13.6200 H   0  0  0  0  0  0  0  0  0  0  0  0
   -4.0625   -5.9657   11.8265 H   0  0  0  0  0  0  0  0  0  0  0  0
   -6.3913   -6.4862   10.9178 H   0  0  0  0  0  0  0  0  0  0  0  0
   -9.4981  -10.5721   10.1681 H   0  0  0  0  0  0  0  0  0  0  0  0
   -9.3939  -12.2354   10.6443 H   0  0  0  0  0  0  0  0  0  0  0  0
  -11.7964  -10.4466   10.3794 H   0  0  0  0  0  0  0  0  0  0  0  0
  -11.6236  -12.1482    9.9771 H   0  0  0  0  0  0  0  0  0  0  0  0
  -12.7301  -10.0690   12.9101 H   0  0  0  0  0  0  0  0  0  0  0  0
  -12.0640  -11.3286   13.9312 H   0  0  0  0  0  0  0  0  0  0  0  0
  -10.3147   -9.7703   14.0120 H   0  0  0  0  0  0  0  0  0  0  0  0
  -10.6965   -9.1303   12.4388 H   0  0  0  0  0  0  0  0  0  0  0  0
  1  2  1  0
  2  3  2  0
  2  4  1  0
  4  5  1  0
  5  6  1  0
  6  7  1  0
  7  8  2  0
  7  9  1  0
  9 10  1  0
 10 11  1  0
 11 12  1  0
 12 13  1  0
 13 14  2  0
 13 15  1  0
 15 16  2  0
 16 17  1  0
 17 18  2  0
 18 19  1  0
 11 20  1  0
 20 21  1  0
 21 22  1  0
 22 23  1  0
 23 24  1  0
 24 11  1  0
 19 15  1  0
  1 25  1  0
  1 26  1  0
  1 27  1  0
  5 28  1  0
  5 29  1  0
  6 30  1  0
  6 31  1  0
  9 32  1  0
 10 33  1  0
 10 34  1  0
 12 35  1  0
 16 36  1  0
 18 37  1  0
 19 38  1  0
 20 39  1  0
 20 40  1  0
 21 41  1  0
 21 42  1  0
 23 43  1  0
 23 44  1  0
 24 45  1  0
 24 46  1  0
M  END
>  <Energy>  (835) 
79.607971616612488

>  <compound_id>  (835) 
17585

>  <target_id>  (835) 
1

>  <reference_id>  (835) 
112

>  <inspiration_ids>  (835) 
[112, 80]

>  <energy_score>  (835) 
98.42115828811816

>  <distance_score>  (835) 
14.835013692344504

>  <path>  (835) 
/opt/xchem-fragalysis-2/maxwin/BulkDock/SCRATCH/511014/C17585-P112/C17585-P112.minimised.mol

>  <scratch_subdir>  (835) 
/opt/xchem-fragalysis-2/maxwin/BulkDock/SCRATCH/511014/C17585-P112

>  <fragmenstein_runtime>  (835) 
21.455511331558228

>  <fragmenstein_outcome>  (835) 
too moved

>  <fragmenstein_mode>  (835) 
expansion

>  <fragmenstein_error>  (835) 


$$$$
C17585-P80
     RDKit          3D

 46 47  0  0  0  0  0  0  0  0999 V2000
  -10.4101  -24.3347    7.6421 C   0  0  0  0  0  0  0  0  0  0  0  0
  -10.5340  -23.0784    8.4479 C   0  0  0  0  0  0  0  0  0  0  0  0
  -11.2585  -22.1338    8.1567 O   0  0  0  0  0  0  0  0  0  0  0  0
   -9.7228  -23.1449    9.5435 O   0  0  0  0  0  0  0  0  0  0  0  0
   -9.7819  -21.9621   10.3673 C   0  0  0  0  0  0  0  0  0  0  0  0
   -8.9760  -22.0416   11.6320 C   0  0  0  0  0  0  0  0  0  0  0  0
   -7.9722  -21.0041   12.2551 C   0  0  0  0  0  0  0  0  0  0  0  0
   -7.2115  -21.5702   13.0257 O   0  0  0  0  0  0  0  0  0  0  0  0
   -8.1340  -19.5183   11.9348 N   0  0  0  0  0  0  0  0  0  0  0  0
   -7.2845  -17.9139   12.7261 C   0  0  0  0  0  0  0  0  0  0  0  0
   -8.1616  -17.1969   14.4850 C   0  0  0  0  0  0  0  0  0  0  0  0
   -6.2264  -16.4536   14.5136 N   0  0  0  0  0  0  0  0  0  0  0  0
   -4.9879  -16.2000   15.9566 C   0  0  0  0  0  0  0  0  0  0  0  0
   -5.1858  -16.3697   17.1478 O   0  0  0  0  0  0  0  0  0  0  0  0
   -3.5160  -15.5746   15.7481 C   0  0  0  0  0  0  0  0  0  0  0  0
   -2.2932  -14.9586   15.7348 C   0  0  0  0  0  0  0  0  0  0  0  0
   -1.5413  -14.1416   16.5052 N   0  0  0  0  0  0  0  0  0  0  0  0
   -2.4169  -13.7340   17.2506 C   0  0  0  0  0  0  0  0  0  0  0  0
   -3.4465  -14.4450   16.7338 N   0  0  0  0  0  0  0  0  0  0  0  0
   -8.1601  -17.0372   16.5312 C   0  0  0  0  0  0  0  0  0  0  0  0
   -8.6330  -18.1642   17.7788 C   0  0  0  0  0  0  0  0  0  0  0  0
   -9.3128  -19.5135   17.4847 O   0  0  0  0  0  0  0  0  0  0  0  0
   -9.9829  -19.7770   15.7961 C   0  0  0  0  0  0  0  0  0  0  0  0
   -9.8536  -18.3059   15.2785 C   0  0  0  0  0  0  0  0  0  0  0  0
   -9.3814  -24.4494    7.2916 H   0  0  0  0  0  0  0  0  0  0  0  0
  -10.7093  -25.1941    8.2471 H   0  0  0  0  0  0  0  0  0  0  0  0
  -11.0706  -24.2737    6.7725 H   0  0  0  0  0  0  0  0  0  0  0  0
  -10.8101  -22.0056   10.7065 H   0  0  0  0  0  0  0  0  0  0  0  0
   -9.5541  -21.0729    9.7756 H   0  0  0  0  0  0  0  0  0  0  0  0
   -8.4681  -23.0158   11.6493 H   0  0  0  0  0  0  0  0  0  0  0  0
   -9.7154  -22.1334   12.4457 H   0  0  0  0  0  0  0  0  0  0  0  0
   -8.9147  -19.3995   11.3122 H   0  0  0  0  0  0  0  0  0  0  0  0
   -6.2974  -18.3367   13.0307 H   0  0  0  0  0  0  0  0  0  0  0  0
   -6.8753  -17.3353   11.9088 H   0  0  0  0  0  0  0  0  0  0  0  0
   -5.7647  -16.3165   13.6295 H   0  0  0  0  0  0  0  0  0  0  0  0
   -1.9384  -14.8105   14.8024 H   0  0  0  0  0  0  0  0  0  0  0  0
   -2.3643  -12.9684   18.0132 H   0  0  0  0  0  0  0  0  0  0  0  0
   -4.3181  -14.2644   17.1447 H   0  0  0  0  0  0  0  0  0  0  0  0
   -7.3813  -16.3224   16.8075 H   0  0  0  0  0  0  0  0  0  0  0  0
   -8.7880  -16.3059   16.9470 H   0  0  0  0  0  0  0  0  0  0  0  0
   -9.3280  -17.6491   18.4532 H   0  0  0  0  0  0  0  0  0  0  0  0
   -7.7460  -18.4089   18.3722 H   0  0  0  0  0  0  0  0  0  0  0  0
   -9.7689  -20.7789   16.2432 H   0  0  0  0  0  0  0  0  0  0  0  0
   -9.9663  -20.5580   14.9679 H   0  0  0  0  0  0  0  0  0  0  0  0
  -10.6741  -18.1606   14.4990 H   0  0  0  0  0  0  0  0  0  0  0  0
  -10.2139  -18.0504   16.2751 H   0  0  0  0  0  0  0  0  0  0  0  0
  1  2  1  0
  2  3  2  0
  2  4  1  0
  4  5  1  0
  5  6  1  0
  6  7  1  0
  7  8  2  0
  7  9  1  0
  9 10  1  0
 10 11  1  0
 11 12  1  0
 12 13  1  0
 13 14  2  0
 13 15  1  0
 15 16  2  0
 16 17  1  0
 17 18  2  0
 18 19  1  0
 11 20  1  0
 20 21  1  0
 21 22  1  0
 22 23  1  0
 23 24  1  0
 24 11  1  0
 19 15  1  0
  1 25  1  0
  1 26  1  0
  1 27  1  0
  5 28  1  0
  5 29  1  0
  6 30  1  0
  6 31  1  0
  9 32  1  0
 10 33  1  0
 10 34  1  0
 12 35  1  0
 16 36  1  0
 18 37  1  0
 19 38  1  0
 20 39  1  0
 20 40  1  0
 21 41  1  0
 21 42  1  0
 23 43  1  0
 23 44  1  0
 24 45  1  0
 24 46  1  0
M  END
>  <Energy>  (836) 
969.24962003690848

>  <compound_id>  (836) 
17585

>  <target_id>  (836) 
1

>  <reference_id>  (836) 
80

>  <inspiration_ids>  (836) 
[112, 80]

>  <energy_score>  (836) 
988.0628067084117

>  <distance_score>  (836) 
13.006438121577748

>  <path>  (836) 
/opt/xchem-fragalysis-2/maxwin/BulkDock/SCRATCH/511014/C17585-P80/C17585-P80.minimised.mol

>  <scratch_subdir>  (836) 
/opt/xchem-fragalysis-2/maxwin/BulkDock/SCRATCH/511014/C17585-P80

>  <fragmenstein_runtime>  (836) 
15.638934850692749

>  <fragmenstein_outcome>  (836) 
too moved

>  <fragmenstein_mode>  (836) 
expansion

>  <fragmenstein_error>  (836) 


$$$$
C17587-P112
     RDKit          3D

 50 51  0  0  0  0  0  0  0  0999 V2000
   -2.2743  -26.4249   11.7785 C   0  0  0  0  0  0  0  0  0  0  0  0
   -2.3486  -24.9296   12.0259 C   0  0  0  0  0  0  0  0  0  0  0  0
   -1.1854  -24.4722   12.7222 O   0  0  0  0  0  0  0  0  0  0  0  0
   -0.0455  -24.2205   11.8717 C   0  0  0  0  0  0  0  0  0  0  0  0
    1.1496  -23.6106   12.6830 C   0  0  0  0  0  0  0  0  0  0  0  0
    1.8120  -24.6985   13.5307 C   0  0  0  0  0  0  0  0  0  0  0  0
    2.2375  -22.8922   11.7934 C   0  0  0  0  0  0  0  0  0  0  0  0
    2.2799  -23.1281   10.6183 O   0  0  0  0  0  0  0  0  0  0  0  0
    3.0583  -22.0055   12.6164 N   0  0  0  0  0  0  0  0  0  0  0  0
    4.1357  -21.0459   12.2437 C   0  0  0  0  0  0  0  0  0  0  0  0
    3.7203  -19.5051   12.2547 C   0  0  0  0  0  0  0  0  0  0  0  0
    4.8552  -18.4887   12.4619 N   0  0  0  0  0  0  0  0  0  0  0  0
    4.8728  -17.0346   12.3223 C   0  0  0  0  0  0  0  0  0  0  0  0
    4.0283  -16.2793   11.9343 O   0  0  0  0  0  0  0  0  0  0  0  0
    6.0797  -16.3179   12.7922 C   0  0  0  0  0  0  0  0  0  0  0  0
    7.3262  -16.6177   13.3081 C   0  0  0  0  0  0  0  0  0  0  0  0
    8.0657  -15.4788   13.5982 N   0  0  0  0  0  0  0  0  0  0  0  0
    7.2977  -14.4690   13.2694 C   0  0  0  0  0  0  0  0  0  0  0  0
    6.1082  -14.9158   12.7796 N   0  0  0  0  0  0  0  0  0  0  0  0
    2.7672  -19.3097   13.4477 C   0  0  0  0  0  0  0  0  0  0  0  0
    1.3149  -19.5635   13.1333 C   0  0  0  0  0  0  0  0  0  0  0  0
    0.8972  -18.9828   11.9203 O   0  0  0  0  0  0  0  0  0  0  0  0
    1.5853  -19.5450   10.8166 C   0  0  0  0  0  0  0  0  0  0  0  0
    3.0393  -19.1657   10.9015 C   0  0  0  0  0  0  0  0  0  0  0  0
   -1.4512  -26.6742   11.1022 H   0  0  0  0  0  0  0  0  0  0  0  0
   -2.0935  -26.9618   12.7154 H   0  0  0  0  0  0  0  0  0  0  0  0
   -3.2056  -26.7895   11.3358 H   0  0  0  0  0  0  0  0  0  0  0  0
   -3.2093  -24.7169   12.6658 H   0  0  0  0  0  0  0  0  0  0  0  0
   -2.4840  -24.3830   11.0887 H   0  0  0  0  0  0  0  0  0  0  0  0
   -0.3359  -23.5425   11.0650 H   0  0  0  0  0  0  0  0  0  0  0  0
    0.2717  -25.1615   11.4080 H   0  0  0  0  0  0  0  0  0  0  0  0
    0.7365  -22.8663   13.3723 H   0  0  0  0  0  0  0  0  0  0  0  0
    1.0800  -25.1925   14.1778 H   0  0  0  0  0  0  0  0  0  0  0  0
    2.5974  -24.2853   14.1717 H   0  0  0  0  0  0  0  0  0  0  0  0
    2.2770  -25.4600   12.8950 H   0  0  0  0  0  0  0  0  0  0  0  0
    2.7936  -22.1169   13.5899 H   0  0  0  0  0  0  0  0  0  0  0  0
    4.5282  -21.3352   11.2634 H   0  0  0  0  0  0  0  0  0  0  0  0
    4.9324  -21.2006   12.9799 H   0  0  0  0  0  0  0  0  0  0  0  0
    5.7154  -18.7888   12.9004 H   0  0  0  0  0  0  0  0  0  0  0  0
    7.7478  -17.5966   13.4947 H   0  0  0  0  0  0  0  0  0  0  0  0
    7.5405  -13.4187   13.3597 H   0  0  0  0  0  0  0  0  0  0  0  0
    5.3337  -14.3536   12.4510 H   0  0  0  0  0  0  0  0  0  0  0  0
    2.8688  -18.2878   13.8180 H   0  0  0  0  0  0  0  0  0  0  0  0
    3.0788  -19.9113   14.3120 H   0  0  0  0  0  0  0  0  0  0  0  0
    0.7752  -19.0510   13.9089 H   0  0  0  0  0  0  0  0  0  0  0  0
    1.0496  -20.6173   13.1574 H   0  0  0  0  0  0  0  0  0  0  0  0
    1.1730  -19.1343    9.8912 H   0  0  0  0  0  0  0  0  0  0  0  0
    1.4620  -20.6246   10.7790 H   0  0  0  0  0  0  0  0  0  0  0  0
    3.0754  -18.0868   10.7245 H   0  0  0  0  0  0  0  0  0  0  0  0
    3.5987  -19.6090   10.0687 H   0  0  0  0  0  0  0  0  0  0  0  0
  1  2  1  0
  2  3  1  0
  3  4  1  0
  4  5  1  0
  5  6  1  0
  5  7  1  0
  7  8  2  0
  7  9  1  0
  9 10  1  0
 10 11  1  0
 11 12  1  0
 12 13  1  0
 13 14  2  0
 13 15  1  0
 15 16  2  0
 16 17  1  0
 17 18  2  0
 18 19  1  0
 11 20  1  0
 20 21  1  0
 21 22  1  0
 22 23  1  0
 23 24  1  0
 24 11  1  0
 19 15  1  0
  1 25  1  0
  1 26  1  0
  1 27  1  0
  2 28  1  0
  2 29  1  0
  4 30  1  0
  4 31  1  0
  5 32  1  0
  6 33  1  0
  6 34  1  0
  6 35  1  0
  9 36  1  0
 10 37  1  0
 10 38  1  0
 12 39  1  0
 16 40  1  0
 18 41  1  0
 19 42  1  0
 20 43  1  0
 20 44  1  0
 21 45  1  0
 21 46  1  0
 23 47  1  0
 23 48  1  0
 24 49  1  0
 24 50  1  0
M  END
>  <Energy>  (837) 
2.8531405442478066

>  <compound_id>  (837) 
17587

>  <target_id>  (837) 
1

>  <reference_id>  (837) 
112

>  <inspiration_ids>  (837) 
[112, 80]

>  <energy_score>  (837) 
-51.00642402220634

>  <distance_score>  (837) 
15.35678711039265

>  <path>  (837) 
/opt/xchem-fragalysis-2/maxwin/BulkDock/SCRATCH/511014/C17587-P112/C17587-P112.minimised.mol

>  <scratch_subdir>  (837) 
/opt/xchem-fragalysis-2/maxwin/BulkDock/SCRATCH/511014/C17587-P112

>  <fragmenstein_runtime>  (837) 
18.274134874343872

>  <fragmenstein_outcome>  (837) 
too moved

>  <fragmenstein_mode>  (837) 
expansion

>  <fragmenstein_error>  (837) 


$$$$
C17587-P80
     RDKit          3D

 50 51  0  0  0  0  0  0  0  0999 V2000
   -7.8825  -27.7709   11.5810 C   0  0  0  0  0  0  0  0  0  0  0  0
   -8.9902  -26.7559   11.7855 C   0  0  0  0  0  0  0  0  0  0  0  0
   -9.0877  -25.9057   10.6409 O   0  0  0  0  0  0  0  0  0  0  0  0
  -10.0819  -26.3658    9.7184 C   0  0  0  0  0  0  0  0  0  0  0  0
   -9.9845  -25.5830    8.4079 C   0  0  0  0  0  0  0  0  0  0  0  0
   -8.5835  -25.6085    7.8008 C   0  0  0  0  0  0  0  0  0  0  0  0
  -10.4968  -24.1419    8.5622 C   0  0  0  0  0  0  0  0  0  0  0  0
  -11.3913  -23.7812    7.8525 O   0  0  0  0  0  0  0  0  0  0  0  0
   -9.7741  -23.4448    9.5823 N   0  0  0  0  0  0  0  0  0  0  0  0
   -9.8313  -22.0583   10.0124 C   0  0  0  0  0  0  0  0  0  0  0  0
   -9.8309  -21.8000   11.5533 C   0  0  0  0  0  0  0  0  0  0  0  0
   -9.7601  -20.2114   11.9054 N   0  0  0  0  0  0  0  0  0  0  0  0
  -10.5352  -19.3799   12.9043 C   0  0  0  0  0  0  0  0  0  0  0  0
  -11.4132  -19.7330   13.5734 O   0  0  0  0  0  0  0  0  0  0  0  0
  -10.1816  -17.6667   13.2488 C   0  0  0  0  0  0  0  0  0  0  0  0
   -8.9612  -17.0427   13.5864 C   0  0  0  0  0  0  0  0  0  0  0  0
   -8.9187  -16.2059   14.6960 N   0  0  0  0  0  0  0  0  0  0  0  0
  -10.1585  -16.1343   15.0411 C   0  0  0  0  0  0  0  0  0  0  0  0
  -10.8835  -17.0340   14.3150 N   0  0  0  0  0  0  0  0  0  0  0  0
   -8.8220  -22.4759   12.4519 C   0  0  0  0  0  0  0  0  0  0  0  0
   -9.4645  -22.6581   13.8565 C   0  0  0  0  0  0  0  0  0  0  0  0
  -10.2407  -23.8479   13.8818 O   0  0  0  0  0  0  0  0  0  0  0  0
  -11.0606  -23.9131   12.7365 C   0  0  0  0  0  0  0  0  0  0  0  0
  -11.1570  -22.5854   11.9933 C   0  0  0  0  0  0  0  0  0  0  0  0
   -6.9343  -27.2663   11.3677 H   0  0  0  0  0  0  0  0  0  0  0  0
   -8.0967  -28.4203   10.7265 H   0  0  0  0  0  0  0  0  0  0  0  0
   -7.7579  -28.3938   12.4713 H   0  0  0  0  0  0  0  0  0  0  0  0
   -8.7538  -26.1238   12.6421 H   0  0  0  0  0  0  0  0  0  0  0  0
   -9.9454  -27.2488   12.0015 H   0  0  0  0  0  0  0  0  0  0  0  0
  -11.0730  -26.2378   10.1691 H   0  0  0  0  0  0  0  0  0  0  0  0
   -9.9264  -27.4312    9.5118 H   0  0  0  0  0  0  0  0  0  0  0  0
  -10.6644  -26.0688    7.6941 H   0  0  0  0  0  0  0  0  0  0  0  0
   -8.2905  -26.6353    7.5581 H   0  0  0  0  0  0  0  0  0  0  0  0
   -8.5519  -25.0199    6.8774 H   0  0  0  0  0  0  0  0  0  0  0  0
   -7.8271  -25.1983    8.4755 H   0  0  0  0  0  0  0  0  0  0  0  0
   -9.1341  -24.0942   10.0379 H   0  0  0  0  0  0  0  0  0  0  0  0
  -10.7729  -21.7544    9.5509 H   0  0  0  0  0  0  0  0  0  0  0  0
   -9.1514  -21.4147    9.4748 H   0  0  0  0  0  0  0  0  0  0  0  0
   -9.0029  -19.6551   11.5372 H   0  0  0  0  0  0  0  0  0  0  0  0
   -8.0185  -17.3533   13.2007 H   0  0  0  0  0  0  0  0  0  0  0  0
  -10.5757  -15.5641   15.8592 H   0  0  0  0  0  0  0  0  0  0  0  0
  -11.6967  -17.4553   14.7090 H   0  0  0  0  0  0  0  0  0  0  0  0
   -8.5279  -23.4385   12.0214 H   0  0  0  0  0  0  0  0  0  0  0  0
   -7.9315  -21.8739   12.5658 H   0  0  0  0  0  0  0  0  0  0  0  0
  -10.0874  -21.8138   14.1342 H   0  0  0  0  0  0  0  0  0  0  0  0
   -8.7469  -22.6955   14.6726 H   0  0  0  0  0  0  0  0  0  0  0  0
  -12.0570  -24.2435   13.0504 H   0  0  0  0  0  0  0  0  0  0  0  0
  -10.6769  -24.6893   12.0797 H   0  0  0  0  0  0  0  0  0  0  0  0
  -11.7278  -21.9464   12.6412 H   0  0  0  0  0  0  0  0  0  0  0  0
  -11.7294  -22.8800   11.1185 H   0  0  0  0  0  0  0  0  0  0  0  0
  1  2  1  0
  2  3  1  0
  3  4  1  0
  4  5  1  0
  5  6  1  0
  5  7  1  0
  7  8  2  0
  7  9  1  0
  9 10  1  0
 10 11  1  0
 11 12  1  0
 12 13  1  0
 13 14  2  0
 13 15  1  0
 15 16  2  0
 16 17  1  0
 17 18  2  0
 18 19  1  0
 11 20  1  0
 20 21  1  0
 21 22  1  0
 22 23  1  0
 23 24  1  0
 24 11  1  0
 19 15  1  0
  1 25  1  0
  1 26  1  0
  1 27  1  0
  2 28  1  0
  2 29  1  0
  4 30  1  0
  4 31  1  0
  5 32  1  0
  6 33  1  0
  6 34  1  0
  6 35  1  0
  9 36  1  0
 10 37  1  0
 10 38  1  0
 12 39  1  0
 16 40  1  0
 18 41  1  0
 19 42  1  0
 20 43  1  0
 20 44  1  0
 21 45  1  0
 21 46  1  0
 23 47  1  0
 23 48  1  0
 24 49  1  0
 24 50  1  0
M  END
>  <Energy>  (838) 
86.759632951755634

>  <compound_id>  (838) 
17587

>  <target_id>  (838) 
1

>  <reference_id>  (838) 
80

>  <inspiration_ids>  (838) 
[112, 80]

>  <energy_score>  (838) 
32.900068385310476

>  <distance_score>  (838) 
15.834448713656569

>  <path>  (838) 
/opt/xchem-fragalysis-2/maxwin/BulkDock/SCRATCH/511014/C17587-P80/C17587-P80.minimised.mol

>  <scratch_subdir>  (838) 
/opt/xchem-fragalysis-2/maxwin/BulkDock/SCRATCH/511014/C17587-P80

>  <fragmenstein_runtime>  (838) 
31.10386061668396

>  <fragmenstein_outcome>  (838) 
too moved

>  <fragmenstein_mode>  (838) 
expansion

>  <fragmenstein_error>  (838) 


$$$$
C10036-P112
     RDKit          3D

 46 48  0  0  0  0  0  0  0  0999 V2000
   -1.7654  -13.9918   17.2614 C   0  0  0  0  0  0  0  0  0  0  0  0
   -1.2514  -14.2618   15.4716 C   0  0  0  0  0  0  0  0  0  0  0  0
    0.9254  -13.8378   16.0810 C   0  0  0  0  0  0  0  0  0  0  0  0
    2.1935  -12.1001   16.2281 N   0  0  0  0  0  0  0  0  0  0  0  0
    3.7380  -11.5590   15.3796 C   0  0  0  0  0  0  0  0  0  0  0  0
    4.4588  -12.1283   14.5626 O   0  0  0  0  0  0  0  0  0  0  0  0
    4.1040  -10.0512   15.7118 C   0  0  0  0  0  0  0  0  0  0  0  0
    4.6077   -9.0925   14.8236 C   0  0  0  0  0  0  0  0  0  0  0  0
    4.8570   -7.8846   15.4380 N   0  0  0  0  0  0  0  0  0  0  0  0
    4.5760   -8.0989   16.6985 C   0  0  0  0  0  0  0  0  0  0  0  0
    4.1480   -9.3808   16.9049 N   0  0  0  0  0  0  0  0  0  0  0  0
   -2.9283  -15.7460   15.1309 N   0  0  0  0  0  0  0  0  0  0  0  0
   -4.4141  -15.8985   13.7969 C   0  0  0  0  0  0  0  0  0  0  0  0
   -4.5054  -14.8959   13.0048 O   0  0  0  0  0  0  0  0  0  0  0  0
   -5.8779  -17.2544   13.3598 C   0  0  0  0  0  0  0  0  0  0  0  0
   -6.8956  -17.6016   11.9327 C   0  0  0  0  0  0  0  0  0  0  0  0
   -7.6604  -18.6488   11.5304 C   0  0  0  0  0  0  0  0  0  0  0  0
   -7.0157  -19.6569   12.1457 N   0  0  0  0  0  0  0  0  0  0  0  0
   -7.9573  -20.9777   12.2359 C   0  0  0  0  0  0  0  0  0  0  0  0
   -7.5279  -22.3416   12.7208 C   0  0  0  0  0  0  0  0  0  0  0  0
   -8.8557  -23.4283   12.7407 C   0  0  0  0  0  0  0  0  0  0  0  0
  -10.0757  -22.6635   12.3545 C   0  0  0  0  0  0  0  0  0  0  0  0
   -9.5880  -21.3699   12.9055 C   0  0  0  0  0  0  0  0  0  0  0  0
   -5.7762  -18.8623   13.0366 N   0  0  0  0  0  0  0  0  0  0  0  0
   -2.8358  -14.1274   17.2178 H   0  0  0  0  0  0  0  0  0  0  0  0
   -1.5999  -12.9600   17.6098 H   0  0  0  0  0  0  0  0  0  0  0  0
   -1.2930  -14.6562   17.9584 H   0  0  0  0  0  0  0  0  0  0  0  0
   -1.6202  -13.3948   15.9144 H   0  0  0  0  0  0  0  0  0  0  0  0
    0.6210  -13.8563   17.1470 H   0  0  0  0  0  0  0  0  0  0  0  0
    1.7246  -14.5890   16.2156 H   0  0  0  0  0  0  0  0  0  0  0  0
    1.9464  -11.4166   16.8709 H   0  0  0  0  0  0  0  0  0  0  0  0
    4.7970   -9.2310   13.7662 H   0  0  0  0  0  0  0  0  0  0  0  0
    4.6672   -7.3832   17.5030 H   0  0  0  0  0  0  0  0  0  0  0  0
    3.9461   -9.8054   17.7962 H   0  0  0  0  0  0  0  0  0  0  0  0
   -3.0039  -16.5098   15.7369 H   0  0  0  0  0  0  0  0  0  0  0  0
   -6.8517  -17.0666   10.9766 H   0  0  0  0  0  0  0  0  0  0  0  0
   -8.3357  -18.7898   10.6973 H   0  0  0  0  0  0  0  0  0  0  0  0
   -8.3612  -20.8227   11.2450 H   0  0  0  0  0  0  0  0  0  0  0  0
   -7.3163  -22.1204   13.7541 H   0  0  0  0  0  0  0  0  0  0  0  0
   -6.6604  -22.7833   12.2276 H   0  0  0  0  0  0  0  0  0  0  0  0
   -9.1157  -23.7769   13.7506 H   0  0  0  0  0  0  0  0  0  0  0  0
   -8.6645  -24.3351   12.1529 H   0  0  0  0  0  0  0  0  0  0  0  0
  -10.2798  -22.6495   11.2923 H   0  0  0  0  0  0  0  0  0  0  0  0
  -10.9687  -23.0460   12.8560 H   0  0  0  0  0  0  0  0  0  0  0  0
  -10.2537  -20.5268   12.9436 H   0  0  0  0  0  0  0  0  0  0  0  0
   -9.4990  -21.6088   13.9911 H   0  0  0  0  0  0  0  0  0  0  0  0
  1  2  1  0
  2  3  1  0
  3  4  1  0
  4  5  1  0
  5  6  2  0
  5  7  1  0
  7  8  2  0
  8  9  1  0
  9 10  2  0
 10 11  1  0
  2 12  1  0
 12 13  1  0
 13 14  2  0
 13 15  1  0
 15 16  1  0
 16 17  2  0
 17 18  1  0
 18 19  1  0
 19 20  1  0
 20 21  1  0
 21 22  1  0
 22 23  1  0
 18 24  1  0
 11  7  1  0
 24 15  2  0
 23 19  1  0
  1 25  1  0
  1 26  1  0
  1 27  1  0
  2 28  1  0
  3 29  1  0
  3 30  1  0
  4 31  1  0
  8 32  1  0
 10 33  1  0
 11 34  1  0
 12 35  1  0
 16 36  1  0
 17 37  1  0
 19 38  1  0
 20 39  1  0
 20 40  1  0
 21 41  1  0
 21 42  1  0
 22 43  1  0
 22 44  1  0
 23 45  1  0
 23 46  1  0
M  END
>  <Energy>  (839) 
1353.4186896841147

>  <compound_id>  (839) 
10036

>  <target_id>  (839) 
1

>  <reference_id>  (839) 
112

>  <inspiration_ids>  (839) 
[112, 80]

>  <energy_score>  (839) 
1318.8045915246157

>  <distance_score>  (839) 
8.814466604266656

>  <path>  (839) 
/opt/xchem-fragalysis-2/maxwin/BulkDock/SCRATCH/511014/C10036-P112/C10036-P112.minimised.mol

>  <scratch_subdir>  (839) 
/opt/xchem-fragalysis-2/maxwin/BulkDock/SCRATCH/511014/C10036-P112

>  <fragmenstein_runtime>  (839) 
18.95901584625244

>  <fragmenstein_outcome>  (839) 
too moved

>  <fragmenstein_mode>  (839) 
expansion

>  <fragmenstein_error>  (839) 


$$$$
C10036-P80
     RDKit          3D

 46 48  0  0  0  0  0  0  0  0999 V2000
    1.9372  -15.1448   18.4861 C   0  0  0  0  0  0  0  0  0  0  0  0
    0.7587  -16.0847   19.9054 C   0  0  0  0  0  0  0  0  0  0  0  0
    2.0610  -14.7985   20.7182 C   0  0  0  0  0  0  0  0  0  0  0  0
    3.2986  -14.1362   21.9259 N   0  0  0  0  0  0  0  0  0  0  0  0
    4.4805  -13.2239   21.7180 C   0  0  0  0  0  0  0  0  0  0  0  0
    4.9516  -12.7762   20.7065 O   0  0  0  0  0  0  0  0  0  0  0  0
    5.1591  -12.6615   22.8701 C   0  0  0  0  0  0  0  0  0  0  0  0
    4.9504  -12.4895   24.2126 C   0  0  0  0  0  0  0  0  0  0  0  0
    5.8388  -11.5674   24.7439 N   0  0  0  0  0  0  0  0  0  0  0  0
    6.6118  -11.1895   23.7534 C   0  0  0  0  0  0  0  0  0  0  0  0
    6.2724  -11.8475   22.6194 N   0  0  0  0  0  0  0  0  0  0  0  0
   -0.7485  -17.3092   20.0874 N   0  0  0  0  0  0  0  0  0  0  0  0
   -2.4087  -17.3599   19.2771 C   0  0  0  0  0  0  0  0  0  0  0  0
   -2.6799  -16.4693   18.5718 O   0  0  0  0  0  0  0  0  0  0  0  0
   -3.8436  -18.6329   19.2615 C   0  0  0  0  0  0  0  0  0  0  0  0
   -4.4479  -19.7222   20.0278 C   0  0  0  0  0  0  0  0  0  0  0  0
   -5.9056  -19.8174   19.9941 C   0  0  0  0  0  0  0  0  0  0  0  0
   -6.2990  -19.6906   18.5910 N   0  0  0  0  0  0  0  0  0  0  0  0
   -7.1999  -21.1011   17.4946 C   0  0  0  0  0  0  0  0  0  0  0  0
   -7.9202  -22.0265   15.6115 C   0  0  0  0  0  0  0  0  0  0  0  0
   -9.4679  -21.8654   15.7313 C   0  0  0  0  0  0  0  0  0  0  0  0
   -9.3046  -20.8779   17.2285 C   0  0  0  0  0  0  0  0  0  0  0  0
   -8.3096  -20.3276   18.1083 C   0  0  0  0  0  0  0  0  0  0  0  0
   -4.8916  -18.8178   18.1758 N   0  0  0  0  0  0  0  0  0  0  0  0
    2.9118  -14.6639   18.6584 H   0  0  0  0  0  0  0  0  0  0  0  0
    2.5146  -15.8382   17.8354 H   0  0  0  0  0  0  0  0  0  0  0  0
    1.4219  -14.3336   17.9238 H   0  0  0  0  0  0  0  0  0  0  0  0
    0.5218  -15.9841   20.9587 H   0  0  0  0  0  0  0  0  0  0  0  0
    2.6611  -15.4565   20.3468 H   0  0  0  0  0  0  0  0  0  0  0  0
    2.4072  -14.1142   20.0717 H   0  0  0  0  0  0  0  0  0  0  0  0
    3.1329  -14.2442   22.9134 H   0  0  0  0  0  0  0  0  0  0  0  0
    4.1704  -12.9120   24.8309 H   0  0  0  0  0  0  0  0  0  0  0  0
    7.4129  -10.4645   23.8045 H   0  0  0  0  0  0  0  0  0  0  0  0
    6.6467  -11.7117   21.6878 H   0  0  0  0  0  0  0  0  0  0  0  0
   -0.6833  -18.0879   20.7252 H   0  0  0  0  0  0  0  0  0  0  0  0
   -3.9020  -20.3915   20.6752 H   0  0  0  0  0  0  0  0  0  0  0  0
   -6.5719  -20.4016   20.6145 H   0  0  0  0  0  0  0  0  0  0  0  0
   -7.0253  -21.8302   18.2890 H   0  0  0  0  0  0  0  0  0  0  0  0
   -7.7596  -23.0775   15.5094 H   0  0  0  0  0  0  0  0  0  0  0  0
   -7.6974  -21.6861   14.5778 H   0  0  0  0  0  0  0  0  0  0  0  0
   -9.8873  -22.8505   15.6712 H   0  0  0  0  0  0  0  0  0  0  0  0
   -9.8905  -21.2944   14.9017 H   0  0  0  0  0  0  0  0  0  0  0  0
   -9.6716  -19.9080   17.0074 H   0  0  0  0  0  0  0  0  0  0  0  0
   -9.5223  -21.5365   18.0248 H   0  0  0  0  0  0  0  0  0  0  0  0
   -8.3158  -19.2225   18.0915 H   0  0  0  0  0  0  0  0  0  0  0  0
   -8.4871  -20.5575   19.1766 H   0  0  0  0  0  0  0  0  0  0  0  0
  1  2  1  0
  2  3  1  0
  3  4  1  0
  4  5  1  0
  5  6  2  0
  5  7  1  0
  7  8  2  0
  8  9  1  0
  9 10  2  0
 10 11  1  0
  2 12  1  0
 12 13  1  0
 13 14  2  0
 13 15  1  0
 15 16  1  0
 16 17  2  0
 17 18  1  0
 18 19  1  0
 19 20  1  0
 20 21  1  0
 21 22  1  0
 22 23  1  0
 18 24  1  0
 11  7  1  0
 24 15  2  0
 23 19  1  0
  1 25  1  0
  1 26  1  0
  1 27  1  0
  2 28  1  0
  3 29  1  0
  3 30  1  0
  4 31  1  0
  8 32  1  0
 10 33  1  0
 11 34  1  0
 12 35  1  0
 16 36  1  0
 17 37  1  0
 19 38  1  0
 20 39  1  0
 20 40  1  0
 21 41  1  0
 21 42  1  0
 22 43  1  0
 22 44  1  0
 23 45  1  0
 23 46  1  0
M  END
>  <Energy>  (840) 
1143.6600806696943

>  <compound_id>  (840) 
10036

>  <target_id>  (840) 
1

>  <reference_id>  (840) 
80

>  <inspiration_ids>  (840) 
[112, 80]

>  <energy_score>  (840) 
1109.045982510149

>  <distance_score>  (840) 
11.379416316477107

>  <path>  (840) 
/opt/xchem-fragalysis-2/maxwin/BulkDock/SCRATCH/511014/C10036-P80/C10036-P80.minimised.mol

>  <scratch_subdir>  (840) 
/opt/xchem-fragalysis-2/maxwin/BulkDock/SCRATCH/511014/C10036-P80

>  <fragmenstein_runtime>  (840) 
26.2322838306427

>  <fragmenstein_outcome>  (840) 
too moved

>  <fragmenstein_mode>  (840) 
expansion

>  <fragmenstein_error>  (840) 


$$$$
C10037-P112
     RDKit          3D

 34 36  0  0  0  0  0  0  0  0999 V2000
    4.1944   -9.7537   12.1854 C   0  0  0  0  0  0  0  0  0  0  0  0
    5.3732  -10.3252   12.1402 N   0  0  0  0  0  0  0  0  0  0  0  0
    5.1208  -11.6347   11.8042 C   0  0  0  0  0  0  0  0  0  0  0  0
    3.7632  -11.8771   11.6423 C   0  0  0  0  0  0  0  0  0  0  0  0
    2.9914  -13.1467   11.2395 C   0  0  0  0  0  0  0  0  0  0  0  0
    1.7013  -13.3978   11.9302 N   0  0  0  0  0  0  0  0  0  0  0  0
    0.7018  -14.3594   11.7379 C   0  0  0  0  0  0  0  0  0  0  0  0
    0.5035  -15.6461   11.1837 C   0  0  0  0  0  0  0  0  0  0  0  0
   -0.7778  -15.8702   10.8207 N   0  0  0  0  0  0  0  0  0  0  0  0
   -1.6125  -14.8796   11.3783 N   0  0  0  0  0  0  0  0  0  0  0  0
   -3.3676  -15.0773   11.3708 C   0  0  0  0  0  0  0  0  0  0  0  0
   -5.4056  -15.2893   11.8319 C   0  0  0  0  0  0  0  0  0  0  0  0
   -6.0163  -16.9178   12.8076 C   0  0  0  0  0  0  0  0  0  0  0  0
   -5.1972  -16.3057   13.8057 C   0  0  0  0  0  0  0  0  0  0  0  0
   -4.2294  -14.7888   12.9801 C   0  0  0  0  0  0  0  0  0  0  0  0
   -0.5887  -13.9457   11.8546 C   0  0  0  0  0  0  0  0  0  0  0  0
    3.1946  -10.6448   11.8898 N   0  0  0  0  0  0  0  0  0  0  0  0
    3.9993   -8.7149   12.4155 H   0  0  0  0  0  0  0  0  0  0  0  0
    5.9309  -12.3447   11.6905 H   0  0  0  0  0  0  0  0  0  0  0  0
    2.8182  -13.0604   10.1626 H   0  0  0  0  0  0  0  0  0  0  0  0
    3.6411  -14.0213   11.3545 H   0  0  0  0  0  0  0  0  0  0  0  0
    1.6167  -12.8597   12.7870 H   0  0  0  0  0  0  0  0  0  0  0  0
    1.2496  -16.3697   10.8783 H   0  0  0  0  0  0  0  0  0  0  0  0
   -3.3634  -14.7192   10.3204 H   0  0  0  0  0  0  0  0  0  0  0  0
   -6.0357  -15.1098   10.8458 H   0  0  0  0  0  0  0  0  0  0  0  0
   -5.9018  -14.4048   12.4372 H   0  0  0  0  0  0  0  0  0  0  0  0
   -7.0530  -17.1000   13.1838 H   0  0  0  0  0  0  0  0  0  0  0  0
   -6.0243  -17.8997   12.3160 H   0  0  0  0  0  0  0  0  0  0  0  0
   -4.4963  -16.9064   14.4220 H   0  0  0  0  0  0  0  0  0  0  0  0
   -6.1387  -16.2291   14.2869 H   0  0  0  0  0  0  0  0  0  0  0  0
   -3.9574  -13.8464   13.3634 H   0  0  0  0  0  0  0  0  0  0  0  0
   -3.7633  -15.5609   13.5917 H   0  0  0  0  0  0  0  0  0  0  0  0
   -0.7147  -12.9114   12.1065 H   0  0  0  0  0  0  0  0  0  0  0  0
    2.2072  -10.4345   11.8413 H   0  0  0  0  0  0  0  0  0  0  0  0
  1  2  2  0
  2  3  1  0
  3  4  2  0
  4  5  1  0
  5  6  1  0
  6  7  1  0
  7  8  1  0
  8  9  2  0
  9 10  1  0
 10 11  1  0
 11 12  1  0
 12 13  1  0
 13 14  1  0
 14 15  1  0
 10 16  1  0
  4 17  1  0
 17  1  1  0
 16  7  2  0
 15 11  1  0
  1 18  1  0
  3 19  1  0
  5 20  1  0
  5 21  1  0
  6 22  1  0
  8 23  1  0
 11 24  1  0
 12 25  1  0
 12 26  1  0
 13 27  1  0
 13 28  1  0
 14 29  1  0
 14 30  1  0
 15 31  1  0
 15 32  1  0
 16 33  1  0
 17 34  1  0
M  END
>  <Energy>  (841) 
552.28518526998357

>  <compound_id>  (841) 
10037

>  <target_id>  (841) 
1

>  <reference_id>  (841) 
112

>  <inspiration_ids>  (841) 
[112, 80]

>  <energy_score>  (841) 
529.6399306701911

>  <distance_score>  (841) 
14.024488615437205

>  <path>  (841) 
/opt/xchem-fragalysis-2/maxwin/BulkDock/SCRATCH/511014/C10037-P112/C10037-P112.minimised.mol

>  <scratch_subdir>  (841) 
/opt/xchem-fragalysis-2/maxwin/BulkDock/SCRATCH/511014/C10037-P112

>  <fragmenstein_runtime>  (841) 
9.403140783309937

>  <fragmenstein_outcome>  (841) 
too moved

>  <fragmenstein_mode>  (841) 
expansion

>  <fragmenstein_error>  (841) 


$$$$
C10037-P80
     RDKit          3D

 34 36  0  0  0  0  0  0  0  0999 V2000
    0.3441  -14.5893   12.0914 C   0  0  0  0  0  0  0  0  0  0  0  0
    0.5767  -15.6966   11.4622 N   0  0  0  0  0  0  0  0  0  0  0  0
   -0.5434  -15.8895   10.7339 C   0  0  0  0  0  0  0  0  0  0  0  0
   -1.5787  -14.9724   11.0779 C   0  0  0  0  0  0  0  0  0  0  0  0
   -3.3703  -15.0658   10.8350 C   0  0  0  0  0  0  0  0  0  0  0  0
   -5.2324  -15.1956   11.6994 N   0  0  0  0  0  0  0  0  0  0  0  0
   -6.6494  -15.3613   11.5548 C   0  0  0  0  0  0  0  0  0  0  0  0
   -7.4925  -15.7992   12.6186 C   0  0  0  0  0  0  0  0  0  0  0  0
   -8.7323  -16.0838   12.2214 N   0  0  0  0  0  0  0  0  0  0  0  0
   -8.6020  -16.0497   10.8820 N   0  0  0  0  0  0  0  0  0  0  0  0
   -9.3734  -17.0203   10.1503 C   0  0  0  0  0  0  0  0  0  0  0  0
   -9.4504  -16.9380    8.6314 C   0  0  0  0  0  0  0  0  0  0  0  0
   -9.8302  -18.3627    8.2752 C   0  0  0  0  0  0  0  0  0  0  0  0
   -8.8987  -19.1723    9.1150 C   0  0  0  0  0  0  0  0  0  0  0  0
   -8.8657  -18.4512   10.4480 C   0  0  0  0  0  0  0  0  0  0  0  0
   -7.4938  -15.3625   10.4638 C   0  0  0  0  0  0  0  0  0  0  0  0
   -0.7059  -13.9838   11.5595 N   0  0  0  0  0  0  0  0  0  0  0  0
    0.8977  -14.0924   12.8421 H   0  0  0  0  0  0  0  0  0  0  0  0
   -0.5977  -16.7541   10.0880 H   0  0  0  0  0  0  0  0  0  0  0  0
   -3.2410  -15.9426   10.1680 H   0  0  0  0  0  0  0  0  0  0  0  0
   -3.4624  -14.4756    9.8824 H   0  0  0  0  0  0  0  0  0  0  0  0
   -5.0968  -14.4030   12.3418 H   0  0  0  0  0  0  0  0  0  0  0  0
   -7.2528  -15.9880   13.6492 H   0  0  0  0  0  0  0  0  0  0  0  0
  -10.3932  -16.8603   10.4962 H   0  0  0  0  0  0  0  0  0  0  0  0
   -8.4885  -16.6768    8.1767 H   0  0  0  0  0  0  0  0  0  0  0  0
  -10.1941  -16.2105    8.2921 H   0  0  0  0  0  0  0  0  0  0  0  0
  -10.8357  -18.5857    8.6197 H   0  0  0  0  0  0  0  0  0  0  0  0
   -9.7147  -18.5804    7.2110 H   0  0  0  0  0  0  0  0  0  0  0  0
   -7.9239  -19.0940    8.6277 H   0  0  0  0  0  0  0  0  0  0  0  0
   -9.1993  -20.2190    9.1934 H   0  0  0  0  0  0  0  0  0  0  0  0
   -9.4863  -18.9512   11.1926 H   0  0  0  0  0  0  0  0  0  0  0  0
   -7.8472  -18.4694   10.8485 H   0  0  0  0  0  0  0  0  0  0  0  0
   -7.3192  -15.1427    9.4233 H   0  0  0  0  0  0  0  0  0  0  0  0
   -0.8522  -13.0065   11.7612 H   0  0  0  0  0  0  0  0  0  0  0  0
  1  2  2  0
  2  3  1  0
  3  4  2  0
  4  5  1  0
  5  6  1  0
  6  7  1  0
  7  8  1  0
  8  9  2  0
  9 10  1  0
 10 11  1  0
 11 12  1  0
 12 13  1  0
 13 14  1  0
 14 15  1  0
 10 16  1  0
  4 17  1  0
 17  1  1  0
 16  7  2  0
 15 11  1  0
  1 18  1  0
  3 19  1  0
  5 20  1  0
  5 21  1  0
  6 22  1  0
  8 23  1  0
 11 24  1  0
 12 25  1  0
 12 26  1  0
 13 27  1  0
 13 28  1  0
 14 29  1  0
 14 30  1  0
 15 31  1  0
 15 32  1  0
 16 33  1  0
 17 34  1  0
M  END
>  <Energy>  (842) 
233.29420304300857

>  <compound_id>  (842) 
10037

>  <target_id>  (842) 
1

>  <reference_id>  (842) 
80

>  <inspiration_ids>  (842) 
[112, 80]

>  <energy_score>  (842) 
210.64894844323226

>  <distance_score>  (842) 
13.818737652465696

>  <path>  (842) 
/opt/xchem-fragalysis-2/maxwin/BulkDock/SCRATCH/511014/C10037-P80/C10037-P80.minimised.mol

>  <scratch_subdir>  (842) 
/opt/xchem-fragalysis-2/maxwin/BulkDock/SCRATCH/511014/C10037-P80

>  <fragmenstein_runtime>  (842) 
6.6148388385772705

>  <fragmenstein_outcome>  (842) 
too moved

>  <fragmenstein_mode>  (842) 
expansion

>  <fragmenstein_error>  (842) 


$$$$
C10038-P112
     RDKit          3D

 45 46  0  0  0  0  0  0  0  0999 V2000
   -5.0423  -10.4620   19.8911 C   0  0  0  0  0  0  0  0  0  0  0  0
   -5.7011   -9.3123   19.1520 C   0  0  0  0  0  0  0  0  0  0  0  0
   -6.6365   -9.8692   18.0208 C   0  0  0  0  0  0  0  0  0  0  0  0
   -7.9130  -10.6630   18.4347 C   0  0  0  0  0  0  0  0  0  0  0  0
   -8.5982  -10.1483   19.6968 C   0  0  0  0  0  0  0  0  0  0  0  0
   -7.7485  -12.1135   18.4963 N   0  0  0  0  0  0  0  0  0  0  0  0
   -8.6946  -13.1965   18.2278 C   0  0  0  0  0  0  0  0  0  0  0  0
   -9.8634  -13.1643   17.9667 O   0  0  0  0  0  0  0  0  0  0  0  0
   -7.9499  -14.5401   18.2957 C   0  0  0  0  0  0  0  0  0  0  0  0
   -8.6337  -15.7195   17.7513 N   0  0  0  0  0  0  0  0  0  0  0  0
   -9.3533  -15.8289   16.5913 C   0  0  0  0  0  0  0  0  0  0  0  0
   -9.6157  -17.1655   16.4198 C   0  0  0  0  0  0  0  0  0  0  0  0
   -8.9631  -17.7985   17.4919 C   0  0  0  0  0  0  0  0  0  0  0  0
   -8.3619  -16.9287   18.3038 N   0  0  0  0  0  0  0  0  0  0  0  0
   -4.7273   -8.2574   18.7096 N   0  0  0  0  0  0  0  0  0  0  0  0
   -3.3223   -8.0096   19.1025 C   0  0  0  0  0  0  0  0  0  0  0  0
   -2.5872   -8.6400   19.8130 O   0  0  0  0  0  0  0  0  0  0  0  0
   -2.8383   -6.6178   18.5227 C   0  0  0  0  0  0  0  0  0  0  0  0
   -1.3279   -6.3229   18.4118 C   0  0  0  0  0  0  0  0  0  0  0  0
   -0.1572   -7.0232   18.6618 C   0  0  0  0  0  0  0  0  0  0  0  0
    0.9656   -6.2907   18.3309 N   0  0  0  0  0  0  0  0  0  0  0  0
    0.5167   -5.1343   17.9159 C   0  0  0  0  0  0  0  0  0  0  0  0
   -0.8503   -5.0970   17.9593 N   0  0  0  0  0  0  0  0  0  0  0  0
   -5.7730  -11.1821   20.2683 H   0  0  0  0  0  0  0  0  0  0  0  0
   -4.4997  -10.0905   20.7645 H   0  0  0  0  0  0  0  0  0  0  0  0
   -4.3563  -10.9957   19.2274 H   0  0  0  0  0  0  0  0  0  0  0  0
   -6.3279   -8.7691   19.8682 H   0  0  0  0  0  0  0  0  0  0  0  0
   -6.9841   -8.9915   17.4576 H   0  0  0  0  0  0  0  0  0  0  0  0
   -6.0285  -10.4450   17.3179 H   0  0  0  0  0  0  0  0  0  0  0  0
   -8.6323  -10.5204   17.6166 H   0  0  0  0  0  0  0  0  0  0  0  0
   -8.0095  -10.3608   20.5946 H   0  0  0  0  0  0  0  0  0  0  0  0
   -8.7702   -9.0688   19.6373 H   0  0  0  0  0  0  0  0  0  0  0  0
   -9.5716  -10.6333   19.8321 H   0  0  0  0  0  0  0  0  0  0  0  0
   -6.8538  -12.5124   18.7636 H   0  0  0  0  0  0  0  0  0  0  0  0
   -7.0187  -14.4662   17.7271 H   0  0  0  0  0  0  0  0  0  0  0  0
   -7.7258  -14.7517   19.3473 H   0  0  0  0  0  0  0  0  0  0  0  0
   -9.6159  -14.9611   16.0020 H   0  0  0  0  0  0  0  0  0  0  0  0
  -10.1708  -17.6153   15.6111 H   0  0  0  0  0  0  0  0  0  0  0  0
   -8.8879  -18.8547   17.7140 H   0  0  0  0  0  0  0  0  0  0  0  0
   -5.0629   -7.4729   18.1620 H   0  0  0  0  0  0  0  0  0  0  0  0
   -3.2742   -6.4883   17.5249 H   0  0  0  0  0  0  0  0  0  0  0  0
   -3.2775   -5.8512   19.1742 H   0  0  0  0  0  0  0  0  0  0  0  0
   -0.0617   -8.0261   19.0574 H   0  0  0  0  0  0  0  0  0  0  0  0
    1.1164   -4.2981   17.5822 H   0  0  0  0  0  0  0  0  0  0  0  0
   -1.4137   -4.2993   17.7004 H   0  0  0  0  0  0  0  0  0  0  0  0
  1  2  1  0
  2  3  1  0
  3  4  1  0
  4  5  1  0
  4  6  1  0
  6  7  1  0
  7  8  2  0
  7  9  1  0
  9 10  1  0
 10 11  1  0
 11 12  2  0
 12 13  1  0
 13 14  2  0
  2 15  1  0
 15 16  1  0
 16 17  2  0
 16 18  1  0
 18 19  1  0
 19 20  2  0
 20 21  1  0
 21 22  2  0
 22 23  1  0
 14 10  1  0
 23 19  1  0
  1 24  1  0
  1 25  1  0
  1 26  1  0
  2 27  1  0
  3 28  1  0
  3 29  1  0
  4 30  1  0
  5 31  1  0
  5 32  1  0
  5 33  1  0
  6 34  1  0
  9 35  1  0
  9 36  1  0
 11 37  1  0
 12 38  1  0
 13 39  1  0
 15 40  1  0
 18 41  1  0
 18 42  1  0
 20 43  1  0
 22 44  1  0
 23 45  1  0
M  END
>  <Energy>  (843) 
48.564211577516645

>  <compound_id>  (843) 
10038

>  <target_id>  (843) 
1

>  <reference_id>  (843) 
112

>  <inspiration_ids>  (843) 
[112, 80]

>  <energy_score>  (843) 
-5.396293204713942

>  <distance_score>  (843) 
13.514236262364816

>  <path>  (843) 
/opt/xchem-fragalysis-2/maxwin/BulkDock/SCRATCH/511014/C10038-P112/C10038-P112.minimised.mol

>  <scratch_subdir>  (843) 
/opt/xchem-fragalysis-2/maxwin/BulkDock/SCRATCH/511014/C10038-P112

>  <fragmenstein_runtime>  (843) 
27.138184547424316

>  <fragmenstein_outcome>  (843) 
too moved

>  <fragmenstein_mode>  (843) 
expansion

>  <fragmenstein_error>  (843) 


$$$$
C10038-P80
     RDKit          3D

 45 46  0  0  0  0  0  0  0  0999 V2000
   -4.2139  -17.5464   16.9785 C   0  0  0  0  0  0  0  0  0  0  0  0
   -4.3101  -16.5633   15.7036 C   0  0  0  0  0  0  0  0  0  0  0  0
   -5.8070  -17.1708   14.7434 C   0  0  0  0  0  0  0  0  0  0  0  0
   -6.8541  -16.4198   13.6737 C   0  0  0  0  0  0  0  0  0  0  0  0
   -7.9728  -15.7722   14.5562 C   0  0  0  0  0  0  0  0  0  0  0  0
   -7.6925  -16.9771   12.5535 N   0  0  0  0  0  0  0  0  0  0  0  0
   -7.4184  -18.0308   11.5845 C   0  0  0  0  0  0  0  0  0  0  0  0
   -6.4872  -18.7747   11.4849 O   0  0  0  0  0  0  0  0  0  0  0  0
   -8.5563  -18.0943   10.5432 C   0  0  0  0  0  0  0  0  0  0  0  0
   -8.9992  -19.4221   10.0923 N   0  0  0  0  0  0  0  0  0  0  0  0
   -9.2004  -20.5714   10.8108 C   0  0  0  0  0  0  0  0  0  0  0  0
   -9.6756  -21.5346    9.9388 C   0  0  0  0  0  0  0  0  0  0  0  0
   -9.7667  -20.8623    8.7068 C   0  0  0  0  0  0  0  0  0  0  0  0
   -9.4256  -19.5718    8.8029 N   0  0  0  0  0  0  0  0  0  0  0  0
   -2.9970  -15.2964   15.2390 N   0  0  0  0  0  0  0  0  0  0  0  0
   -2.9512  -14.0435   13.8492 C   0  0  0  0  0  0  0  0  0  0  0  0
   -3.8684  -13.8693   13.0655 O   0  0  0  0  0  0  0  0  0  0  0  0
   -1.0339  -12.9998   13.6102 C   0  0  0  0  0  0  0  0  0  0  0  0
   -0.8695  -11.0723   12.8949 C   0  0  0  0  0  0  0  0  0  0  0  0
    0.2163  -10.1585   12.0915 C   0  0  0  0  0  0  0  0  0  0  0  0
    0.3057   -8.2475   12.5000 N   0  0  0  0  0  0  0  0  0  0  0  0
   -0.5748   -7.9492   13.5283 C   0  0  0  0  0  0  0  0  0  0  0  0
   -1.3764   -9.5883   13.7857 N   0  0  0  0  0  0  0  0  0  0  0  0
   -4.1280  -16.9740   17.9094 H   0  0  0  0  0  0  0  0  0  0  0  0
   -3.4247  -18.2902   17.0354 H   0  0  0  0  0  0  0  0  0  0  0  0
   -5.1457  -18.1161   17.0792 H   0  0  0  0  0  0  0  0  0  0  0  0
   -4.8752  -15.9860   16.4087 H   0  0  0  0  0  0  0  0  0  0  0  0
   -6.4641  -17.3798   15.5942 H   0  0  0  0  0  0  0  0  0  0  0  0
   -5.5750  -18.1591   14.3427 H   0  0  0  0  0  0  0  0  0  0  0  0
   -6.2817  -15.7052   13.0768 H   0  0  0  0  0  0  0  0  0  0  0  0
   -8.7431  -16.5127   14.8040 H   0  0  0  0  0  0  0  0  0  0  0  0
   -8.4679  -14.9596   14.0117 H   0  0  0  0  0  0  0  0  0  0  0  0
   -7.6164  -15.3738   15.5113 H   0  0  0  0  0  0  0  0  0  0  0  0
   -8.5396  -16.4914   12.2845 H   0  0  0  0  0  0  0  0  0  0  0  0
   -9.4549  -17.5897   10.8997 H   0  0  0  0  0  0  0  0  0  0  0  0
   -8.2000  -17.5613    9.6535 H   0  0  0  0  0  0  0  0  0  0  0  0
   -8.9449  -20.6508   11.8449 H   0  0  0  0  0  0  0  0  0  0  0  0
   -9.9000  -22.5649   10.1741 H   0  0  0  0  0  0  0  0  0  0  0  0
  -10.0868  -21.2501    7.7489 H   0  0  0  0  0  0  0  0  0  0  0  0
   -2.1704  -15.2019   15.7975 H   0  0  0  0  0  0  0  0  0  0  0  0
   -0.1280  -13.5452   13.8390 H   0  0  0  0  0  0  0  0  0  0  0  0
   -0.6095  -13.3326   12.5765 H   0  0  0  0  0  0  0  0  0  0  0  0
    0.9690  -10.4698   11.3650 H   0  0  0  0  0  0  0  0  0  0  0  0
   -0.9086   -7.0731   14.0455 H   0  0  0  0  0  0  0  0  0  0  0  0
   -2.2621   -9.5719   14.2683 H   0  0  0  0  0  0  0  0  0  0  0  0
  1  2  1  0
  2  3  1  0
  3  4  1  0
  4  5  1  0
  4  6  1  0
  6  7  1  0
  7  8  2  0
  7  9  1  0
  9 10  1  0
 10 11  1  0
 11 12  2  0
 12 13  1  0
 13 14  2  0
  2 15  1  0
 15 16  1  0
 16 17  2  0
 16 18  1  0
 18 19  1  0
 19 20  2  0
 20 21  1  0
 21 22  2  0
 22 23  1  0
 14 10  1  0
 23 19  1  0
  1 24  1  0
  1 25  1  0
  1 26  1  0
  2 27  1  0
  3 28  1  0
  3 29  1  0
  4 30  1  0
  5 31  1  0
  5 32  1  0
  5 33  1  0
  6 34  1  0
  9 35  1  0
  9 36  1  0
 11 37  1  0
 12 38  1  0
 13 39  1  0
 15 40  1  0
 18 41  1  0
 18 42  1  0
 20 43  1  0
 22 44  1  0
 23 45  1  0
M  END
>  <Energy>  (844) 
685.01758917353334

>  <compound_id>  (844) 
10038

>  <target_id>  (844) 
1

>  <reference_id>  (844) 
80

>  <inspiration_ids>  (844) 
[112, 80]

>  <energy_score>  (844) 
631.0570843912944

>  <distance_score>  (844) 
11.673962010903919

>  <path>  (844) 
/opt/xchem-fragalysis-2/maxwin/BulkDock/SCRATCH/511014/C10038-P80/C10038-P80.minimised.mol

>  <scratch_subdir>  (844) 
/opt/xchem-fragalysis-2/maxwin/BulkDock/SCRATCH/511014/C10038-P80

>  <fragmenstein_runtime>  (844) 
24.73903751373291

>  <fragmenstein_outcome>  (844) 
too moved

>  <fragmenstein_mode>  (844) 
expansion

>  <fragmenstein_error>  (844) 


$$$$
C10039-P112
     RDKit          3D

 46 47  0  0  0  0  0  0  0  0999 V2000
    3.8054  -23.5630   14.9963 C   0  0  0  0  0  0  0  0  0  0  0  0
    2.4530  -23.2695   14.3660 C   0  0  0  0  0  0  0  0  0  0  0  0
    2.2778  -21.7720   14.0907 C   0  0  0  0  0  0  0  0  0  0  0  0
    0.9199  -21.4851   13.4312 C   0  0  0  0  0  0  0  0  0  0  0  0
    0.4880  -19.9206   13.2394 C   0  0  0  0  0  0  0  0  0  0  0  0
    1.3064  -19.2937   12.0428 C   0  0  0  0  0  0  0  0  0  0  0  0
    2.7889  -19.1322   12.3346 N   0  0  0  0  0  0  0  0  0  0  0  0
    3.4957  -18.8797   13.5882 C   0  0  0  0  0  0  0  0  0  0  0  0
    3.0896  -18.8159   14.7155 O   0  0  0  0  0  0  0  0  0  0  0  0
    4.9236  -18.5940   13.4689 C   0  0  0  0  0  0  0  0  0  0  0  0
    5.9130  -18.7942   12.5320 C   0  0  0  0  0  0  0  0  0  0  0  0
    7.1558  -18.4343   13.0199 N   0  0  0  0  0  0  0  0  0  0  0  0
    6.9401  -18.0032   14.2413 C   0  0  0  0  0  0  0  0  0  0  0  0
    5.6111  -18.0052   14.5266 N   0  0  0  0  0  0  0  0  0  0  0  0
   -1.1440  -19.2903   13.9453 N   0  0  0  0  0  0  0  0  0  0  0  0
   -2.2115  -20.0038   14.8840 C   0  0  0  0  0  0  0  0  0  0  0  0
   -2.2605  -21.1428   15.2908 O   0  0  0  0  0  0  0  0  0  0  0  0
   -3.1751  -18.9587   15.3129 C   0  0  0  0  0  0  0  0  0  0  0  0
   -3.4795  -18.5331   16.5555 N   0  0  0  0  0  0  0  0  0  0  0  0
   -4.5097  -17.6713   16.3593 N   0  0  0  0  0  0  0  0  0  0  0  0
   -5.0032  -17.6800   15.0814 C   0  0  0  0  0  0  0  0  0  0  0  0
   -4.1676  -18.5404   14.3980 C   0  0  0  0  0  0  0  0  0  0  0  0
   -4.2330  -19.2194   13.1700 O   0  0  0  0  0  0  0  0  0  0  0  0
   -5.4033  -19.6534   12.4431 C   0  0  0  0  0  0  0  0  0  0  0  0
    3.9105  -24.6357   15.1859 H   0  0  0  0  0  0  0  0  0  0  0  0
    4.6216  -23.2529   14.3360 H   0  0  0  0  0  0  0  0  0  0  0  0
    3.9161  -23.0367   15.9498 H   0  0  0  0  0  0  0  0  0  0  0  0
    2.3611  -23.8336   13.4306 H   0  0  0  0  0  0  0  0  0  0  0  0
    1.6610  -23.6212   15.0374 H   0  0  0  0  0  0  0  0  0  0  0  0
    3.0898  -21.4572   13.4312 H   0  0  0  0  0  0  0  0  0  0  0  0
    2.3632  -21.2294   15.0370 H   0  0  0  0  0  0  0  0  0  0  0  0
    0.1818  -22.0431   14.0189 H   0  0  0  0  0  0  0  0  0  0  0  0
    0.9623  -21.9529   12.4384 H   0  0  0  0  0  0  0  0  0  0  0  0
    1.1230  -19.4042   13.9578 H   0  0  0  0  0  0  0  0  0  0  0  0
    1.2601  -19.9374   11.1608 H   0  0  0  0  0  0  0  0  0  0  0  0
    0.9303  -18.3128   11.7512 H   0  0  0  0  0  0  0  0  0  0  0  0
    3.4343  -19.0320   11.5661 H   0  0  0  0  0  0  0  0  0  0  0  0
    5.8184  -19.2311   11.5466 H   0  0  0  0  0  0  0  0  0  0  0  0
    7.6890  -17.6624   14.9432 H   0  0  0  0  0  0  0  0  0  0  0  0
    5.1739  -17.7543   15.4035 H   0  0  0  0  0  0  0  0  0  0  0  0
   -1.3637  -18.3206   13.8759 H   0  0  0  0  0  0  0  0  0  0  0  0
   -4.8739  -17.1737   17.1652 H   0  0  0  0  0  0  0  0  0  0  0  0
   -5.9063  -17.1499   14.8152 H   0  0  0  0  0  0  0  0  0  0  0  0
   -6.1361  -18.8568   12.3102 H   0  0  0  0  0  0  0  0  0  0  0  0
   -5.8547  -20.5818   12.7858 H   0  0  0  0  0  0  0  0  0  0  0  0
   -5.0561  -19.9358   11.4390 H   0  0  0  0  0  0  0  0  0  0  0  0
  1  2  1  0
  2  3  1  0
  3  4  1  0
  4  5  1  0
  5  6  1  0
  6  7  1  0
  7  8  1  0
  8  9  2  0
  8 10  1  0
 10 11  2  0
 11 12  1  0
 12 13  2  0
 13 14  1  0
  5 15  1  0
 15 16  1  0
 16 17  2  0
 16 18  1  0
 18 19  2  0
 19 20  1  0
 20 21  1  0
 21 22  2  0
 22 23  1  0
 23 24  1  0
 14 10  1  0
 22 18  1  0
  1 25  1  0
  1 26  1  0
  1 27  1  0
  2 28  1  0
  2 29  1  0
  3 30  1  0
  3 31  1  0
  4 32  1  0
  4 33  1  0
  5 34  1  0
  6 35  1  0
  6 36  1  0
  7 37  1  0
 11 38  1  0
 13 39  1  0
 14 40  1  0
 15 41  1  0
 20 42  1  0
 21 43  1  0
 24 44  1  0
 24 45  1  0
 24 46  1  0
M  END
>  <Energy>  (845) 
144.29223619921075

>  <compound_id>  (845) 
10039

>  <target_id>  (845) 
1

>  <reference_id>  (845) 
112

>  <inspiration_ids>  (845) 
[112, 80]

>  <energy_score>  (845) 
103.03602043925724

>  <distance_score>  (845) 
14.163422004817926

>  <path>  (845) 
/opt/xchem-fragalysis-2/maxwin/BulkDock/SCRATCH/511014/C10039-P112/C10039-P112.minimised.mol

>  <scratch_subdir>  (845) 
/opt/xchem-fragalysis-2/maxwin/BulkDock/SCRATCH/511014/C10039-P112

>  <fragmenstein_runtime>  (845) 
32.9542772769928

>  <fragmenstein_outcome>  (845) 
too moved

>  <fragmenstein_mode>  (845) 
expansion

>  <fragmenstein_error>  (845) 


$$$$
C10039-P80
     RDKit          3D

 46 47  0  0  0  0  0  0  0  0999 V2000
    0.2636  -14.5455   12.7264 C   0  0  0  0  0  0  0  0  0  0  0  0
    0.0418  -14.0052   14.2583 C   0  0  0  0  0  0  0  0  0  0  0  0
    0.8309  -14.2883   16.3698 C   0  0  0  0  0  0  0  0  0  0  0  0
    1.9267  -14.6685   18.2269 C   0  0  0  0  0  0  0  0  0  0  0  0
    1.8373  -15.0992   20.3640 C   0  0  0  0  0  0  0  0  0  0  0  0
    2.5666  -14.6257   22.0861 C   0  0  0  0  0  0  0  0  0  0  0  0
    3.4707  -13.3822   22.1832 N   0  0  0  0  0  0  0  0  0  0  0  0
    4.8947  -13.2586   22.3872 C   0  0  0  0  0  0  0  0  0  0  0  0
    5.7227  -14.0889   22.6119 O   0  0  0  0  0  0  0  0  0  0  0  0
    5.3705  -11.8757   22.1782 C   0  0  0  0  0  0  0  0  0  0  0  0
    4.8122  -10.6117   22.2869 C   0  0  0  0  0  0  0  0  0  0  0  0
    5.6226   -9.6384   21.7369 N   0  0  0  0  0  0  0  0  0  0  0  0
    6.7360  -10.2571   21.4227 C   0  0  0  0  0  0  0  0  0  0  0  0
    6.6513  -11.5912   21.7107 N   0  0  0  0  0  0  0  0  0  0  0  0
    0.6209  -16.4213   20.8033 N   0  0  0  0  0  0  0  0  0  0  0  0
   -0.8451  -16.5868   20.4461 C   0  0  0  0  0  0  0  0  0  0  0  0
   -1.5984  -15.8478   19.8528 O   0  0  0  0  0  0  0  0  0  0  0  0
   -1.4345  -17.9279   20.7937 C   0  0  0  0  0  0  0  0  0  0  0  0
   -0.7663  -18.9202   21.4144 N   0  0  0  0  0  0  0  0  0  0  0  0
   -1.5629  -20.0093   21.2712 N   0  0  0  0  0  0  0  0  0  0  0  0
   -2.7338  -19.7734   20.6212 C   0  0  0  0  0  0  0  0  0  0  0  0
   -2.6994  -18.4391   20.3187 C   0  0  0  0  0  0  0  0  0  0  0  0
   -3.6458  -17.8461   19.5627 O   0  0  0  0  0  0  0  0  0  0  0  0
   -4.4891  -17.0103   20.3504 C   0  0  0  0  0  0  0  0  0  0  0  0
    0.8849  -13.8629   12.1824 H   0  0  0  0  0  0  0  0  0  0  0  0
    0.5618  -15.5715   12.5408 H   0  0  0  0  0  0  0  0  0  0  0  0
   -0.6195  -14.4068   12.1055 H   0  0  0  0  0  0  0  0  0  0  0  0
    0.4579  -12.9887   13.8919 H   0  0  0  0  0  0  0  0  0  0  0  0
   -1.0370  -13.8843   14.2580 H   0  0  0  0  0  0  0  0  0  0  0  0
    0.1394  -13.7108   17.0557 H   0  0  0  0  0  0  0  0  0  0  0  0
    1.4536  -13.4529   16.1855 H   0  0  0  0  0  0  0  0  0  0  0  0
    2.6275  -15.4546   17.9025 H   0  0  0  0  0  0  0  0  0  0  0  0
    2.6537  -13.8761   18.2408 H   0  0  0  0  0  0  0  0  0  0  0  0
    2.5751  -15.6919   20.8770 H   0  0  0  0  0  0  0  0  0  0  0  0
    3.1254  -15.4774   22.5371 H   0  0  0  0  0  0  0  0  0  0  0  0
    1.7470  -14.5837   22.8326 H   0  0  0  0  0  0  0  0  0  0  0  0
    3.0695  -12.4609   22.0994 H   0  0  0  0  0  0  0  0  0  0  0  0
    3.8349  -10.3492   22.6749 H   0  0  0  0  0  0  0  0  0  0  0  0
    7.6241   -9.8081   20.9973 H   0  0  0  0  0  0  0  0  0  0  0  0
    7.3674  -12.2899   21.5543 H   0  0  0  0  0  0  0  0  0  0  0  0
    0.9161  -17.2079   21.3815 H   0  0  0  0  0  0  0  0  0  0  0  0
   -1.2216  -20.8946   21.6327 H   0  0  0  0  0  0  0  0  0  0  0  0
   -3.4459  -20.5556   20.4092 H   0  0  0  0  0  0  0  0  0  0  0  0
   -3.9236  -16.2441   20.8902 H   0  0  0  0  0  0  0  0  0  0  0  0
   -5.1881  -16.5060   19.6767 H   0  0  0  0  0  0  0  0  0  0  0  0
   -5.0713  -17.6116   21.0575 H   0  0  0  0  0  0  0  0  0  0  0  0
  1  2  1  0
  2  3  1  0
  3  4  1  0
  4  5  1  0
  5  6  1  0
  6  7  1  0
  7  8  1  0
  8  9  2  0
  8 10  1  0
 10 11  2  0
 11 12  1  0
 12 13  2  0
 13 14  1  0
  5 15  1  0
 15 16  1  0
 16 17  2  0
 16 18  1  0
 18 19  2  0
 19 20  1  0
 20 21  1  0
 21 22  2  0
 22 23  1  0
 23 24  1  0
 14 10  1  0
 22 18  1  0
  1 25  1  0
  1 26  1  0
  1 27  1  0
  2 28  1  0
  2 29  1  0
  3 30  1  0
  3 31  1  0
  4 32  1  0
  4 33  1  0
  5 34  1  0
  6 35  1  0
  6 36  1  0
  7 37  1  0
 11 38  1  0
 13 39  1  0
 14 40  1  0
 15 41  1  0
 20 42  1  0
 21 43  1  0
 24 44  1  0
 24 45  1  0
 24 46  1  0
M  END
>  <Energy>  (846) 
711.49907830114967

>  <compound_id>  (846) 
10039

>  <target_id>  (846) 
1

>  <reference_id>  (846) 
80

>  <inspiration_ids>  (846) 
[112, 80]

>  <energy_score>  (846) 
670.2428625411827

>  <distance_score>  (846) 
13.765686116121568

>  <path>  (846) 
/opt/xchem-fragalysis-2/maxwin/BulkDock/SCRATCH/511014/C10039-P80/C10039-P80.minimised.mol

>  <scratch_subdir>  (846) 
/opt/xchem-fragalysis-2/maxwin/BulkDock/SCRATCH/511014/C10039-P80

>  <fragmenstein_runtime>  (846) 
25.03362226486206

>  <fragmenstein_outcome>  (846) 
too moved

>  <fragmenstein_mode>  (846) 
expansion

>  <fragmenstein_error>  (846) 


$$$$
C10040-P112
     RDKit          3D

 42 43  0  0  0  0  0  0  0  0999 V2000
   -3.6404  -11.7613   18.4921 C   0  0  0  0  0  0  0  0  0  0  0  0
   -2.4691  -12.6771   18.1750 C   0  0  0  0  0  0  0  0  0  0  0  0
   -2.2482  -14.1249   17.5139 C   0  0  0  0  0  0  0  0  0  0  0  0
   -3.3900  -15.1632   16.5137 C   0  0  0  0  0  0  0  0  0  0  0  0
   -2.9850  -15.8627   14.9129 C   0  0  0  0  0  0  0  0  0  0  0  0
   -1.5850  -14.3393   14.3188 C   0  0  0  0  0  0  0  0  0  0  0  0
   -0.7459  -13.3775   12.8723 N   0  0  0  0  0  0  0  0  0  0  0  0
    0.3727  -12.4818   12.8563 C   0  0  0  0  0  0  0  0  0  0  0  0
    1.1179  -12.1728   13.7193 O   0  0  0  0  0  0  0  0  0  0  0  0
    0.6787  -11.5879   11.4724 C   0  0  0  0  0  0  0  0  0  0  0  0
    1.8782  -10.7185   11.7832 C   0  0  0  0  0  0  0  0  0  0  0  0
    3.0861  -10.5596   11.0611 N   0  0  0  0  0  0  0  0  0  0  0  0
    2.5457  -11.0338   10.0560 C   0  0  0  0  0  0  0  0  0  0  0  0
    1.2674  -10.4877   10.5740 N   0  0  0  0  0  0  0  0  0  0  0  0
   -3.1118  -17.6293   14.3019 N   0  0  0  0  0  0  0  0  0  0  0  0
   -4.5589  -18.5757   13.5103 C   0  0  0  0  0  0  0  0  0  0  0  0
   -5.7193  -18.1515   13.3728 O   0  0  0  0  0  0  0  0  0  0  0  0
   -4.3763  -20.1659   12.6851 C   0  0  0  0  0  0  0  0  0  0  0  0
   -5.3029  -20.4861   11.7203 N   0  0  0  0  0  0  0  0  0  0  0  0
   -4.7574  -21.5286   11.0513 N   0  0  0  0  0  0  0  0  0  0  0  0
   -3.5095  -21.8799   11.4239 C   0  0  0  0  0  0  0  0  0  0  0  0
   -3.2621  -21.1058   12.5212 C   0  0  0  0  0  0  0  0  0  0  0  0
   -2.1079  -21.1550   13.1908 F   0  0  0  0  0  0  0  0  0  0  0  0
   -3.2283  -10.7460   18.4967 H   0  0  0  0  0  0  0  0  0  0  0  0
   -4.0333  -11.9744   19.4915 H   0  0  0  0  0  0  0  0  0  0  0  0
   -4.5458  -11.7336   17.8976 H   0  0  0  0  0  0  0  0  0  0  0  0
   -1.6400  -12.0374   17.8817 H   0  0  0  0  0  0  0  0  0  0  0  0
   -2.2216  -12.8844   19.2061 H   0  0  0  0  0  0  0  0  0  0  0  0
   -1.2966  -13.9598   17.0173 H   0  0  0  0  0  0  0  0  0  0  0  0
   -1.9133  -14.7831   18.3231 H   0  0  0  0  0  0  0  0  0  0  0  0
   -3.6508  -14.1962   16.2370 H   0  0  0  0  0  0  0  0  0  0  0  0
   -4.1073  -15.9140   16.8611 H   0  0  0  0  0  0  0  0  0  0  0  0
   -3.8869  -16.0498   14.3325 H   0  0  0  0  0  0  0  0  0  0  0  0
   -0.9368  -14.6919   13.1399 H   0  0  0  0  0  0  0  0  0  0  0  0
   -1.0925  -14.1332   15.2642 H   0  0  0  0  0  0  0  0  0  0  0  0
   -1.1075  -13.4690   11.9235 H   0  0  0  0  0  0  0  0  0  0  0  0
    2.1034  -10.7231   12.8193 H   0  0  0  0  0  0  0  0  0  0  0  0
    2.8414  -11.3065    9.0483 H   0  0  0  0  0  0  0  0  0  0  0  0
    0.6695  -10.1119    9.8571 H   0  0  0  0  0  0  0  0  0  0  0  0
   -2.3066  -18.2316   14.3645 H   0  0  0  0  0  0  0  0  0  0  0  0
   -5.2655  -21.9514   10.2890 H   0  0  0  0  0  0  0  0  0  0  0  0
   -2.9391  -22.6544   10.9363 H   0  0  0  0  0  0  0  0  0  0  0  0
  1  2  1  0
  2  3  1  0
  3  4  1  0
  4  5  1  0
  5  6  1  0
  6  7  1  0
  7  8  1  0
  8  9  2  0
  8 10  1  0
 10 11  2  0
 11 12  1  0
 12 13  2  0
 13 14  1  0
  5 15  1  0
 15 16  1  0
 16 17  2  0
 16 18  1  0
 18 19  2  0
 19 20  1  0
 20 21  1  0
 21 22  2  0
 22 23  1  0
 14 10  1  0
 22 18  1  0
  1 24  1  0
  1 25  1  0
  1 26  1  0
  2 27  1  0
  2 28  1  0
  3 29  1  0
  3 30  1  0
  4 31  1  0
  4 32  1  0
  5 33  1  0
  6 34  1  0
  6 35  1  0
  7 36  1  0
 11 37  1  0
 13 38  1  0
 14 39  1  0
 15 40  1  0
 20 41  1  0
 21 42  1  0
M  END
>  <Energy>  (847) 
821.93500882235844

>  <compound_id>  (847) 
10040

>  <target_id>  (847) 
1

>  <reference_id>  (847) 
112

>  <inspiration_ids>  (847) 
[112, 80]

>  <energy_score>  (847) 
768.9590366744603

>  <distance_score>  (847) 
11.809076429518019

>  <path>  (847) 
/opt/xchem-fragalysis-2/maxwin/BulkDock/SCRATCH/511014/C10040-P112/C10040-P112.minimised.mol

>  <scratch_subdir>  (847) 
/opt/xchem-fragalysis-2/maxwin/BulkDock/SCRATCH/511014/C10040-P112

>  <fragmenstein_runtime>  (847) 
33.990395069122314

>  <fragmenstein_outcome>  (847) 
too moved

>  <fragmenstein_mode>  (847) 
expansion

>  <fragmenstein_error>  (847) 


$$$$
C10040-P80
     RDKit          3D

 42 43  0  0  0  0  0  0  0  0999 V2000
   -2.7619  -17.0292   19.4008 C   0  0  0  0  0  0  0  0  0  0  0  0
   -3.8656  -17.2604   18.3840 C   0  0  0  0  0  0  0  0  0  0  0  0
   -4.0272  -16.2858   17.1411 C   0  0  0  0  0  0  0  0  0  0  0  0
   -2.9332  -14.9658   16.5589 C   0  0  0  0  0  0  0  0  0  0  0  0
   -2.5310  -15.1138   15.0803 C   0  0  0  0  0  0  0  0  0  0  0  0
   -1.0859  -14.1301   13.9685 C   0  0  0  0  0  0  0  0  0  0  0  0
   -0.4878  -13.5366   12.8239 N   0  0  0  0  0  0  0  0  0  0  0  0
    0.4170  -12.5746   12.7259 C   0  0  0  0  0  0  0  0  0  0  0  0
    0.9832  -12.0034   13.5536 O   0  0  0  0  0  0  0  0  0  0  0  0
    0.9549  -12.1426   11.3434 C   0  0  0  0  0  0  0  0  0  0  0  0
    2.3243  -12.4265   10.6102 C   0  0  0  0  0  0  0  0  0  0  0  0
    3.0829  -11.3878   10.2433 N   0  0  0  0  0  0  0  0  0  0  0  0
    2.4859  -10.4854   10.9029 C   0  0  0  0  0  0  0  0  0  0  0  0
    1.2204  -10.7703   11.3154 N   0  0  0  0  0  0  0  0  0  0  0  0
   -3.9384  -16.0868   14.4586 N   0  0  0  0  0  0  0  0  0  0  0  0
   -5.3026  -15.6181   13.3123 C   0  0  0  0  0  0  0  0  0  0  0  0
   -5.3265  -14.5679   12.7706 O   0  0  0  0  0  0  0  0  0  0  0  0
   -6.6015  -16.3780   13.0036 C   0  0  0  0  0  0  0  0  0  0  0  0
   -7.5972  -16.5506   13.8944 N   0  0  0  0  0  0  0  0  0  0  0  0
   -8.6835  -15.9051   13.4815 N   0  0  0  0  0  0  0  0  0  0  0  0
   -8.5179  -15.2973   12.2949 C   0  0  0  0  0  0  0  0  0  0  0  0
   -7.2720  -15.7224   11.8954 C   0  0  0  0  0  0  0  0  0  0  0  0
   -6.7061  -15.3726   10.7318 F   0  0  0  0  0  0  0  0  0  0  0  0
   -2.1945  -16.1099   19.2691 H   0  0  0  0  0  0  0  0  0  0  0  0
   -2.0649  -17.8665   19.4062 H   0  0  0  0  0  0  0  0  0  0  0  0
   -3.1974  -16.9698   20.3844 H   0  0  0  0  0  0  0  0  0  0  0  0
   -3.7136  -18.2712   17.9890 H   0  0  0  0  0  0  0  0  0  0  0  0
   -4.8344  -17.3910   18.8766 H   0  0  0  0  0  0  0  0  0  0  0  0
   -4.0118  -17.0431   16.3949 H   0  0  0  0  0  0  0  0  0  0  0  0
   -5.0317  -15.9034   17.1537 H   0  0  0  0  0  0  0  0  0  0  0  0
   -3.4519  -14.0526   16.6773 H   0  0  0  0  0  0  0  0  0  0  0  0
   -2.1126  -14.7975   17.2300 H   0  0  0  0  0  0  0  0  0  0  0  0
   -2.1370  -16.0319   15.0438 H   0  0  0  0  0  0  0  0  0  0  0  0
   -0.2483  -14.7601   13.6456 H   0  0  0  0  0  0  0  0  0  0  0  0
   -1.0850  -13.1372   14.2133 H   0  0  0  0  0  0  0  0  0  0  0  0
   -0.7111  -13.8676   11.8860 H   0  0  0  0  0  0  0  0  0  0  0  0
    2.6658  -13.2885   10.0570 H   0  0  0  0  0  0  0  0  0  0  0  0
    2.9547   -9.5792   11.1653 H   0  0  0  0  0  0  0  0  0  0  0  0
    0.8117  -10.1744   12.0035 H   0  0  0  0  0  0  0  0  0  0  0  0
   -4.0622  -17.0453   14.7462 H   0  0  0  0  0  0  0  0  0  0  0  0
   -9.5011  -15.9084   14.0820 H   0  0  0  0  0  0  0  0  0  0  0  0
   -9.2738  -14.6990   11.8113 H   0  0  0  0  0  0  0  0  0  0  0  0
  1  2  1  0
  2  3  1  0
  3  4  1  0
  4  5  1  0
  5  6  1  0
  6  7  1  0
  7  8  1  0
  8  9  2  0
  8 10  1  0
 10 11  2  0
 11 12  1  0
 12 13  2  0
 13 14  1  0
  5 15  1  0
 15 16  1  0
 16 17  2  0
 16 18  1  0
 18 19  2  0
 19 20  1  0
 20 21  1  0
 21 22  2  0
 22 23  1  0
 14 10  1  0
 22 18  1  0
  1 24  1  0
  1 25  1  0
  1 26  1  0
  2 27  1  0
  2 28  1  0
  3 29  1  0
  3 30  1  0
  4 31  1  0
  4 32  1  0
  5 33  1  0
  6 34  1  0
  6 35  1  0
  7 36  1  0
 11 37  1  0
 13 38  1  0
 14 39  1  0
 15 40  1  0
 20 41  1  0
 21 42  1  0
M  END
>  <Energy>  (848) 
478.23565929002854

>  <compound_id>  (848) 
10040

>  <target_id>  (848) 
1

>  <reference_id>  (848) 
80

>  <inspiration_ids>  (848) 
[112, 80]

>  <energy_score>  (848) 
425.259687142121

>  <distance_score>  (848) 
12.696470413717616

>  <path>  (848) 
/opt/xchem-fragalysis-2/maxwin/BulkDock/SCRATCH/511014/C10040-P80/C10040-P80.minimised.mol

>  <scratch_subdir>  (848) 
/opt/xchem-fragalysis-2/maxwin/BulkDock/SCRATCH/511014/C10040-P80

>  <fragmenstein_runtime>  (848) 
38.669490337371826

>  <fragmenstein_outcome>  (848) 
too moved

>  <fragmenstein_mode>  (848) 
expansion

>  <fragmenstein_error>  (848) 


$$$$
C10041-P112
     RDKit          3D

 45 46  0  0  0  0  0  0  0  0999 V2000
   -3.6861  -11.6978   18.7925 C   0  0  0  0  0  0  0  0  0  0  0  0
   -2.3615  -12.0434   18.2075 C   0  0  0  0  0  0  0  0  0  0  0  0
   -2.2487  -13.4152   17.5939 C   0  0  0  0  0  0  0  0  0  0  0  0
   -1.0104  -13.7163   16.9029 C   0  0  0  0  0  0  0  0  0  0  0  0
   -1.0230  -13.9915   15.0978 C   0  0  0  0  0  0  0  0  0  0  0  0
    0.4721  -13.0130   13.6024 C   0  0  0  0  0  0  0  0  0  0  0  0
    1.6013  -11.2333   13.2447 N   0  0  0  0  0  0  0  0  0  0  0  0
    3.2317  -10.4053   14.1257 C   0  0  0  0  0  0  0  0  0  0  0  0
    3.8740  -10.9891   15.0278 O   0  0  0  0  0  0  0  0  0  0  0  0
    3.9350   -8.5669   13.9011 C   0  0  0  0  0  0  0  0  0  0  0  0
    4.6332   -7.2924   13.5257 C   0  0  0  0  0  0  0  0  0  0  0  0
    4.2719   -6.0191   14.0754 N   0  0  0  0  0  0  0  0  0  0  0  0
    3.6615   -6.1693   15.1832 C   0  0  0  0  0  0  0  0  0  0  0  0
    3.3037   -7.4988   15.1623 N   0  0  0  0  0  0  0  0  0  0  0  0
   -2.7606  -14.7646   14.6974 N   0  0  0  0  0  0  0  0  0  0  0  0
   -3.7337  -16.1155   15.4053 C   0  0  0  0  0  0  0  0  0  0  0  0
   -3.5394  -16.8024   16.3835 O   0  0  0  0  0  0  0  0  0  0  0  0
   -5.2015  -16.4008   14.1657 C   0  0  0  0  0  0  0  0  0  0  0  0
   -5.8653  -15.5743   12.9583 C   0  0  0  0  0  0  0  0  0  0  0  0
   -6.7489  -16.3282   12.2380 C   0  0  0  0  0  0  0  0  0  0  0  0
   -6.4683  -17.5879   12.6153 N   0  0  0  0  0  0  0  0  0  0  0  0
   -6.4232  -18.8708   11.8637 C   0  0  0  0  0  0  0  0  0  0  0  0
   -5.8250  -17.6262   13.7935 N   0  0  0  0  0  0  0  0  0  0  0  0
   -3.9996  -12.2950   19.6416 H   0  0  0  0  0  0  0  0  0  0  0  0
   -3.5393  -10.6871   19.1641 H   0  0  0  0  0  0  0  0  0  0  0  0
   -4.4998  -11.6823   18.0755 H   0  0  0  0  0  0  0  0  0  0  0  0
   -2.1507  -11.1714   17.6351 H   0  0  0  0  0  0  0  0  0  0  0  0
   -1.5401  -11.9180   18.8924 H   0  0  0  0  0  0  0  0  0  0  0  0
   -2.1408  -14.1094   18.4054 H   0  0  0  0  0  0  0  0  0  0  0  0
   -3.0422  -13.8432   17.0125 H   0  0  0  0  0  0  0  0  0  0  0  0
   -0.1826  -13.1650   17.2620 H   0  0  0  0  0  0  0  0  0  0  0  0
   -0.6343  -14.5943   17.4187 H   0  0  0  0  0  0  0  0  0  0  0  0
   -0.2708  -14.5166   15.6475 H   0  0  0  0  0  0  0  0  0  0  0  0
   -0.3458  -12.5312   13.0351 H   0  0  0  0  0  0  0  0  0  0  0  0
    0.7361  -13.7138   12.7921 H   0  0  0  0  0  0  0  0  0  0  0  0
    1.2810  -10.6202   12.4647 H   0  0  0  0  0  0  0  0  0  0  0  0
    5.5390   -7.1062   12.9944 H   0  0  0  0  0  0  0  0  0  0  0  0
    3.3666   -5.4518   15.9345 H   0  0  0  0  0  0  0  0  0  0  0  0
    2.7638   -7.9347   15.8945 H   0  0  0  0  0  0  0  0  0  0  0  0
   -3.1677  -14.4468   13.7998 H   0  0  0  0  0  0  0  0  0  0  0  0
   -5.6827  -14.5370   12.7567 H   0  0  0  0  0  0  0  0  0  0  0  0
   -7.2834  -16.0015   11.3696 H   0  0  0  0  0  0  0  0  0  0  0  0
   -7.3929  -19.3683   11.8255 H   0  0  0  0  0  0  0  0  0  0  0  0
   -6.0385  -18.7104   10.8577 H   0  0  0  0  0  0  0  0  0  0  0  0
   -5.7268  -19.5547   12.3649 H   0  0  0  0  0  0  0  0  0  0  0  0
  1  2  1  0
  2  3  1  0
  3  4  1  0
  4  5  1  0
  5  6  1  0
  6  7  1  0
  7  8  1  0
  8  9  2  0
  8 10  1  0
 10 11  2  0
 11 12  1  0
 12 13  2  0
 13 14  1  0
  5 15  1  0
 15 16  1  0
 16 17  2  0
 16 18  1  0
 18 19  1  0
 19 20  2  0
 20 21  1  0
 21 22  1  0
 21 23  1  0
 14 10  1  0
 23 18  2  0
  1 24  1  0
  1 25  1  0
  1 26  1  0
  2 27  1  0
  2 28  1  0
  3 29  1  0
  3 30  1  0
  4 31  1  0
  4 32  1  0
  5 33  1  0
  6 34  1  0
  6 35  1  0
  7 36  1  0
 11 37  1  0
 13 38  1  0
 14 39  1  0
 15 40  1  0
 19 41  1  0
 20 42  1  0
 22 43  1  0
 22 44  1  0
 22 45  1  0
M  END
>  <Energy>  (849) 
1020.8922299228337

>  <compound_id>  (849) 
10041

>  <target_id>  (849) 
1

>  <reference_id>  (849) 
112

>  <inspiration_ids>  (849) 
[112, 80]

>  <energy_score>  (849) 
965.2997991848905

>  <distance_score>  (849) 
10.767995895865253

>  <path>  (849) 
/opt/xchem-fragalysis-2/maxwin/BulkDock/SCRATCH/511014/C10041-P112/C10041-P112.minimised.mol

>  <scratch_subdir>  (849) 
/opt/xchem-fragalysis-2/maxwin/BulkDock/SCRATCH/511014/C10041-P112

>  <fragmenstein_runtime>  (849) 
24.51323914527893

>  <fragmenstein_outcome>  (849) 
too moved

>  <fragmenstein_mode>  (849) 
expansion

>  <fragmenstein_error>  (849) 


$$$$
C10041-P80
     RDKit          3D

 45 46  0  0  0  0  0  0  0  0999 V2000
    6.2253  -17.1995    4.5254 C   0  0  0  0  0  0  0  0  0  0  0  0
    5.7560  -15.7582    4.3981 C   0  0  0  0  0  0  0  0  0  0  0  0
    5.3727  -15.1169    5.7354 C   0  0  0  0  0  0  0  0  0  0  0  0
    4.0945  -15.7012    6.3417 C   0  0  0  0  0  0  0  0  0  0  0  0
    3.7679  -15.1922    7.7599 C   0  0  0  0  0  0  0  0  0  0  0  0
    3.4462  -13.6708    7.8198 C   0  0  0  0  0  0  0  0  0  0  0  0
    4.5199  -12.6880    7.6088 N   0  0  0  0  0  0  0  0  0  0  0  0
    4.5350  -11.4486    6.8700 C   0  0  0  0  0  0  0  0  0  0  0  0
    3.7023  -10.9467    6.1764 O   0  0  0  0  0  0  0  0  0  0  0  0
    5.7521  -10.6358    7.0929 C   0  0  0  0  0  0  0  0  0  0  0  0
    5.8555   -9.2471    7.0022 C   0  0  0  0  0  0  0  0  0  0  0  0
    7.1162   -8.7861    7.2878 N   0  0  0  0  0  0  0  0  0  0  0  0
    7.8207   -9.8692    7.4935 C   0  0  0  0  0  0  0  0  0  0  0  0
    7.0494  -11.0019    7.3872 N   0  0  0  0  0  0  0  0  0  0  0  0
    2.6834  -16.0556    8.3085 N   0  0  0  0  0  0  0  0  0  0  0  0
    2.7333  -17.1687    9.2246 C   0  0  0  0  0  0  0  0  0  0  0  0
    3.6506  -17.6323    9.8397 O   0  0  0  0  0  0  0  0  0  0  0  0
    1.3970  -17.8867    9.3506 C   0  0  0  0  0  0  0  0  0  0  0  0
    1.1410  -19.0342   10.1736 C   0  0  0  0  0  0  0  0  0  0  0  0
   -0.1558  -19.4113    9.9282 C   0  0  0  0  0  0  0  0  0  0  0  0
   -0.6444  -18.4874    9.0591 N   0  0  0  0  0  0  0  0  0  0  0  0
   -1.9803  -18.4473    8.5140 C   0  0  0  0  0  0  0  0  0  0  0  0
    0.2759  -17.5633    8.6620 N   0  0  0  0  0  0  0  0  0  0  0  0
    6.5836  -17.5635    3.5570 H   0  0  0  0  0  0  0  0  0  0  0  0
    5.4160  -17.8611    4.8466 H   0  0  0  0  0  0  0  0  0  0  0  0
    7.0473  -17.2835    5.2432 H   0  0  0  0  0  0  0  0  0  0  0  0
    6.5686  -15.1703    3.9543 H   0  0  0  0  0  0  0  0  0  0  0  0
    4.9111  -15.7071    3.7017 H   0  0  0  0  0  0  0  0  0  0  0  0
    6.2046  -15.2152    6.4428 H   0  0  0  0  0  0  0  0  0  0  0  0
    5.2306  -14.0484    5.5487 H   0  0  0  0  0  0  0  0  0  0  0  0
    3.2465  -15.4988    5.6746 H   0  0  0  0  0  0  0  0  0  0  0  0
    4.1880  -16.7929    6.3888 H   0  0  0  0  0  0  0  0  0  0  0  0
    4.6407  -15.3795    8.3984 H   0  0  0  0  0  0  0  0  0  0  0  0
    2.6344  -13.4298    7.1250 H   0  0  0  0  0  0  0  0  0  0  0  0
    3.0911  -13.4465    8.8293 H   0  0  0  0  0  0  0  0  0  0  0  0
    5.3651  -12.7562    8.1536 H   0  0  0  0  0  0  0  0  0  0  0  0
    5.0555   -8.5592    6.7548 H   0  0  0  0  0  0  0  0  0  0  0  0
    8.8770   -9.9058    7.7261 H   0  0  0  0  0  0  0  0  0  0  0  0
    7.3972  -11.9445    7.4775 H   0  0  0  0  0  0  0  0  0  0  0  0
    1.7466  -15.9984    7.9064 H   0  0  0  0  0  0  0  0  0  0  0  0
    1.8424  -19.5198   10.8384 H   0  0  0  0  0  0  0  0  0  0  0  0
   -0.7604  -20.2177   10.3212 H   0  0  0  0  0  0  0  0  0  0  0  0
   -1.9152  -18.6268    7.4380 H   0  0  0  0  0  0  0  0  0  0  0  0
   -2.4061  -17.4607    8.7111 H   0  0  0  0  0  0  0  0  0  0  0  0
   -2.5924  -19.2200    8.9852 H   0  0  0  0  0  0  0  0  0  0  0  0
  1  2  1  0
  2  3  1  0
  3  4  1  0
  4  5  1  0
  5  6  1  0
  6  7  1  0
  7  8  1  0
  8  9  2  0
  8 10  1  0
 10 11  2  0
 11 12  1  0
 12 13  2  0
 13 14  1  0
  5 15  1  0
 15 16  1  0
 16 17  2  0
 16 18  1  0
 18 19  1  0
 19 20  2  0
 20 21  1  0
 21 22  1  0
 21 23  1  0
 14 10  1  0
 23 18  2  0
  1 24  1  0
  1 25  1  0
  1 26  1  0
  2 27  1  0
  2 28  1  0
  3 29  1  0
  3 30  1  0
  4 31  1  0
  4 32  1  0
  5 33  1  0
  6 34  1  0
  6 35  1  0
  7 36  1  0
 11 37  1  0
 13 38  1  0
 14 39  1  0
 15 40  1  0
 19 41  1  0
 20 42  1  0
 22 43  1  0
 22 44  1  0
 22 45  1  0
M  END
>  <Energy>  (850) 
18.247042569248521

>  <compound_id>  (850) 
10041

>  <target_id>  (850) 
1

>  <reference_id>  (850) 
80

>  <inspiration_ids>  (850) 
[112, 80]

>  <energy_score>  (850) 
-37.34538816870355

>  <distance_score>  (850) 
14.285758749629332

>  <path>  (850) 
/opt/xchem-fragalysis-2/maxwin/BulkDock/SCRATCH/511014/C10041-P80/C10041-P80.minimised.mol

>  <scratch_subdir>  (850) 
/opt/xchem-fragalysis-2/maxwin/BulkDock/SCRATCH/511014/C10041-P80

>  <fragmenstein_runtime>  (850) 
33.03858208656311

>  <fragmenstein_outcome>  (850) 
too moved

>  <fragmenstein_mode>  (850) 
expansion

>  <fragmenstein_error>  (850) 


$$$$
C10042-P112
     RDKit          3D

 42 43  0  0  0  0  0  0  0  0999 V2000
   -5.9420  -18.5754   11.7253 C   0  0  0  0  0  0  0  0  0  0  0  0
   -3.7611  -18.7428   11.7560 C   0  0  0  0  0  0  0  0  0  0  0  0
   -3.5405  -17.6025   13.5920 N   0  0  0  0  0  0  0  0  0  0  0  0
   -4.7420  -17.4400   14.0118 C   0  0  0  0  0  0  0  0  0  0  0  0
   -5.5670  -16.5499   13.8947 O   0  0  0  0  0  0  0  0  0  0  0  0
   -4.8832  -18.7836   14.4021 C   0  0  0  0  0  0  0  0  0  0  0  0
   -4.4760  -20.2570   13.0973 C   0  0  0  0  0  0  0  0  0  0  0  0
   -5.4321  -20.9144   12.2737 C   0  0  0  0  0  0  0  0  0  0  0  0
   -6.5114  -20.2813   12.7288 N   0  0  0  0  0  0  0  0  0  0  0  0
   -5.9265  -18.8016   13.5545 N   0  0  0  0  0  0  0  0  0  0  0  0
   -2.3834  -16.9045   14.6824 C   0  0  0  0  0  0  0  0  0  0  0  0
   -1.5568  -18.2643   14.8046 C   0  0  0  0  0  0  0  0  0  0  0  0
   -1.6521  -14.7398   14.5451 C   0  0  0  0  0  0  0  0  0  0  0  0
   -0.7230  -13.5481   13.0738 N   0  0  0  0  0  0  0  0  0  0  0  0
    0.7231  -12.4622   13.1372 C   0  0  0  0  0  0  0  0  0  0  0  0
    1.4203  -12.3693   14.1136 O   0  0  0  0  0  0  0  0  0  0  0  0
    1.3427  -11.1147   11.7386 C   0  0  0  0  0  0  0  0  0  0  0  0
    3.0245   -9.9757   11.7705 C   0  0  0  0  0  0  0  0  0  0  0  0
    3.3252   -8.1889   11.6101 C   0  0  0  0  0  0  0  0  0  0  0  0
    3.8961   -7.4383   12.8625 N   0  0  0  0  0  0  0  0  0  0  0  0
    4.4874   -8.3966   13.5534 C   0  0  0  0  0  0  0  0  0  0  0  0
    4.0318   -9.8371   13.2664 N   0  0  0  0  0  0  0  0  0  0  0  0
   -6.3575  -17.7166   12.2465 H   0  0  0  0  0  0  0  0  0  0  0  0
   -6.4380  -17.9033   10.9881 H   0  0  0  0  0  0  0  0  0  0  0  0
   -6.4774  -19.3489   11.0744 H   0  0  0  0  0  0  0  0  0  0  0  0
   -3.6344  -19.8237   11.6148 H   0  0  0  0  0  0  0  0  0  0  0  0
   -3.2299  -18.4829   10.5981 H   0  0  0  0  0  0  0  0  0  0  0  0
   -3.6463  -20.8844   13.2928 H   0  0  0  0  0  0  0  0  0  0  0  0
   -5.4308  -21.7757   11.6243 H   0  0  0  0  0  0  0  0  0  0  0  0
   -7.4635  -20.2926   12.3710 H   0  0  0  0  0  0  0  0  0  0  0  0
   -3.2467  -16.6487   15.3801 H   0  0  0  0  0  0  0  0  0  0  0  0
   -0.7891  -18.3731   15.4890 H   0  0  0  0  0  0  0  0  0  0  0  0
   -2.2931  -18.6168   15.4263 H   0  0  0  0  0  0  0  0  0  0  0  0
   -1.2517  -18.9564   14.0504 H   0  0  0  0  0  0  0  0  0  0  0  0
   -1.1441  -14.2435   15.4246 H   0  0  0  0  0  0  0  0  0  0  0  0
   -0.9674  -14.7655   13.1873 H   0  0  0  0  0  0  0  0  0  0  0  0
   -1.1057  -13.5302   12.1169 H   0  0  0  0  0  0  0  0  0  0  0  0
    1.7724  -11.7324   10.9502 H   0  0  0  0  0  0  0  0  0  0  0  0
    0.4954  -10.6580   11.3461 H   0  0  0  0  0  0  0  0  0  0  0  0
    2.6992   -7.4435   11.0808 H   0  0  0  0  0  0  0  0  0  0  0  0
    5.4192   -8.2238   14.0502 H   0  0  0  0  0  0  0  0  0  0  0  0
    4.4731  -10.6192   13.7273 H   0  0  0  0  0  0  0  0  0  0  0  0
  1  2  1  0
  2  3  1  0
  3  4  1  0
  4  5  2  0
  4  6  1  0
  6  7  1  0
  7  8  2  0
  8  9  1  0
  9 10  1  0
  3 11  1  0
 11 12  1  0
 11 13  1  0
 13 14  1  0
 14 15  1  0
 15 16  2  0
 15 17  1  0
 17 18  1  0
 18 19  2  0
 19 20  1  0
 20 21  2  0
 21 22  1  0
 10  6  2  0
 22 18  1  0
  1 23  1  0
  1 24  1  0
  1 25  1  0
  2 26  1  0
  2 27  1  0
  7 28  1  0
  8 29  1  0
  9 30  1  0
 11 31  1  0
 12 32  1  0
 12 33  1  0
 12 34  1  0
 13 35  1  0
 13 36  1  0
 14 37  1  0
 17 38  1  0
 17 39  1  0
 19 40  1  0
 21 41  1  0
 22 42  1  0
M  END
>  <Energy>  (851) 
1797.1069320304098

>  <compound_id>  (851) 
10042

>  <target_id>  (851) 
1

>  <reference_id>  (851) 
112

>  <inspiration_ids>  (851) 
[112, 80]

>  <energy_score>  (851) 
1702.4030571616

>  <distance_score>  (851) 
10.375981980785326

>  <path>  (851) 
/opt/xchem-fragalysis-2/maxwin/BulkDock/SCRATCH/511014/C10042-P112/C10042-P112.minimised.mol

>  <scratch_subdir>  (851) 
/opt/xchem-fragalysis-2/maxwin/BulkDock/SCRATCH/511014/C10042-P112

>  <fragmenstein_runtime>  (851) 
18.72812509536743

>  <fragmenstein_outcome>  (851) 
too moved

>  <fragmenstein_mode>  (851) 
expansion

>  <fragmenstein_error>  (851) 


$$$$
C10042-P80
     RDKit          3D

 42 43  0  0  0  0  0  0  0  0999 V2000
   -4.9726  -16.1799   14.1378 C   0  0  0  0  0  0  0  0  0  0  0  0
   -3.3296  -16.3483   14.5987 C   0  0  0  0  0  0  0  0  0  0  0  0
   -3.6283  -17.3358   15.1920 N   0  0  0  0  0  0  0  0  0  0  0  0
   -4.8311  -18.4559   13.9740 C   0  0  0  0  0  0  0  0  0  0  0  0
   -4.1711  -19.4060   13.1850 O   0  0  0  0  0  0  0  0  0  0  0  0
   -6.1819  -18.4305   13.5795 C   0  0  0  0  0  0  0  0  0  0  0  0
   -6.7031  -19.9943   12.6766 C   0  0  0  0  0  0  0  0  0  0  0  0
   -7.7811  -19.7462   11.8729 C   0  0  0  0  0  0  0  0  0  0  0  0
   -6.9173  -18.7675   11.6925 N   0  0  0  0  0  0  0  0  0  0  0  0
   -6.7403  -17.7495   12.5817 N   0  0  0  0  0  0  0  0  0  0  0  0
   -2.4847  -15.4190   15.0139 C   0  0  0  0  0  0  0  0  0  0  0  0
   -2.4847  -14.6609   16.5194 C   0  0  0  0  0  0  0  0  0  0  0  0
   -0.8892  -14.1357   13.9644 C   0  0  0  0  0  0  0  0  0  0  0  0
    0.7667  -12.8976   14.0670 N   0  0  0  0  0  0  0  0  0  0  0  0
    1.3222  -11.5082   13.0251 C   0  0  0  0  0  0  0  0  0  0  0  0
    0.7784  -11.1565   11.9812 O   0  0  0  0  0  0  0  0  0  0  0  0
    3.1069  -10.7323   13.8988 C   0  0  0  0  0  0  0  0  0  0  0  0
    4.4845  -10.0444   13.6929 C   0  0  0  0  0  0  0  0  0  0  0  0
    5.7490  -10.6026   13.8154 C   0  0  0  0  0  0  0  0  0  0  0  0
    7.0788   -9.3765   13.7379 N   0  0  0  0  0  0  0  0  0  0  0  0
    6.3723   -8.2264   13.9216 C   0  0  0  0  0  0  0  0  0  0  0  0
    4.8139   -8.5043   13.7412 N   0  0  0  0  0  0  0  0  0  0  0  0
   -5.9126  -16.6057   13.9556 H   0  0  0  0  0  0  0  0  0  0  0  0
   -5.4285  -16.1671   15.1582 H   0  0  0  0  0  0  0  0  0  0  0  0
   -5.2205  -15.3890   13.3647 H   0  0  0  0  0  0  0  0  0  0  0  0
   -3.0383  -17.2623   14.1330 H   0  0  0  0  0  0  0  0  0  0  0  0
   -3.8152  -16.1499   15.7040 H   0  0  0  0  0  0  0  0  0  0  0  0
   -6.5094  -20.9927   13.0475 H   0  0  0  0  0  0  0  0  0  0  0  0
   -8.4532  -20.3102   11.2456 H   0  0  0  0  0  0  0  0  0  0  0  0
   -6.6150  -18.5133   10.7849 H   0  0  0  0  0  0  0  0  0  0  0  0
   -2.9365  -14.5498   14.7274 H   0  0  0  0  0  0  0  0  0  0  0  0
   -1.7888  -13.8441   16.5974 H   0  0  0  0  0  0  0  0  0  0  0  0
   -2.2729  -15.2575   17.3686 H   0  0  0  0  0  0  0  0  0  0  0  0
   -3.4571  -14.2684   16.7189 H   0  0  0  0  0  0  0  0  0  0  0  0
   -1.2291  -13.1636   13.8299 H   0  0  0  0  0  0  0  0  0  0  0  0
   -0.4688  -14.5688   13.0209 H   0  0  0  0  0  0  0  0  0  0  0  0
    1.3344  -12.9219   14.9230 H   0  0  0  0  0  0  0  0  0  0  0  0
    2.9459   -9.9494   14.5948 H   0  0  0  0  0  0  0  0  0  0  0  0
    3.6413  -11.2673   14.7936 H   0  0  0  0  0  0  0  0  0  0  0  0
    5.9507  -11.6529   13.6530 H   0  0  0  0  0  0  0  0  0  0  0  0
    6.5967   -7.5085   14.6547 H   0  0  0  0  0  0  0  0  0  0  0  0
    4.1466   -7.7754   13.7914 H   0  0  0  0  0  0  0  0  0  0  0  0
  1  2  1  0
  2  3  1  0
  3  4  1  0
  4  5  2  0
  4  6  1  0
  6  7  1  0
  7  8  2  0
  8  9  1  0
  9 10  1  0
  3 11  1  0
 11 12  1  0
 11 13  1  0
 13 14  1  0
 14 15  1  0
 15 16  2  0
 15 17  1  0
 17 18  1  0
 18 19  2  0
 19 20  1  0
 20 21  2  0
 21 22  1  0
 10  6  2  0
 22 18  1  0
  1 23  1  0
  1 24  1  0
  1 25  1  0
  2 26  1  0
  2 27  1  0
  7 28  1  0
  8 29  1  0
  9 30  1  0
 11 31  1  0
 12 32  1  0
 12 33  1  0
 12 34  1  0
 13 35  1  0
 13 36  1  0
 14 37  1  0
 17 38  1  0
 17 39  1  0
 19 40  1  0
 21 41  1  0
 22 42  1  0
M  END
>  <Energy>  (852) 
1962.4861421796572

>  <compound_id>  (852) 
10042

>  <target_id>  (852) 
1

>  <reference_id>  (852) 
80

>  <inspiration_ids>  (852) 
[112, 80]

>  <energy_score>  (852) 
1867.7822673108217

>  <distance_score>  (852) 
9.565095960535018

>  <path>  (852) 
/opt/xchem-fragalysis-2/maxwin/BulkDock/SCRATCH/511014/C10042-P80/C10042-P80.minimised.mol

>  <scratch_subdir>  (852) 
/opt/xchem-fragalysis-2/maxwin/BulkDock/SCRATCH/511014/C10042-P80

>  <fragmenstein_runtime>  (852) 
15.8376944065094

>  <fragmenstein_outcome>  (852) 
too moved

>  <fragmenstein_mode>  (852) 
expansion

>  <fragmenstein_error>  (852) 


$$$$
C10043-P112
     RDKit          3D

 45 46  0  0  0  0  0  0  0  0999 V2000
   -5.5140  -12.5783   12.8349 C   0  0  0  0  0  0  0  0  0  0  0  0
   -4.4230  -14.1761   12.9367 C   0  0  0  0  0  0  0  0  0  0  0  0
   -5.5668  -14.6197   12.9800 N   0  0  0  0  0  0  0  0  0  0  0  0
   -6.5506  -14.4150   14.3857 C   0  0  0  0  0  0  0  0  0  0  0  0
   -6.3309  -13.9927   15.4369 O   0  0  0  0  0  0  0  0  0  0  0  0
   -7.9726  -14.7300   14.2266 C   0  0  0  0  0  0  0  0  0  0  0  0
   -8.7324  -15.2272   15.2976 C   0  0  0  0  0  0  0  0  0  0  0  0
   -8.3925  -16.5363   15.0102 C   0  0  0  0  0  0  0  0  0  0  0  0
   -8.0701  -16.5648   13.6296 N   0  0  0  0  0  0  0  0  0  0  0  0
   -6.8424  -17.0321   13.0216 C   0  0  0  0  0  0  0  0  0  0  0  0
   -8.4421  -15.3680   13.1678 N   0  0  0  0  0  0  0  0  0  0  0  0
   -3.5549  -14.3879   12.5159 C   0  0  0  0  0  0  0  0  0  0  0  0
   -3.0619  -14.9901   10.7456 C   0  0  0  0  0  0  0  0  0  0  0  0
   -1.4832  -14.4298   11.8106 C   0  0  0  0  0  0  0  0  0  0  0  0
   -0.1773  -13.2696   12.4224 N   0  0  0  0  0  0  0  0  0  0  0  0
    0.0936  -11.7321   12.0859 C   0  0  0  0  0  0  0  0  0  0  0  0
   -0.5571  -10.9589   11.4092 O   0  0  0  0  0  0  0  0  0  0  0  0
    1.6808  -10.9037   12.6425 C   0  0  0  0  0  0  0  0  0  0  0  0
    3.2042  -10.4342   13.9026 C   0  0  0  0  0  0  0  0  0  0  0  0
    3.9757  -10.9781   14.9946 C   0  0  0  0  0  0  0  0  0  0  0  0
    5.0041  -11.5437   14.3871 N   0  0  0  0  0  0  0  0  0  0  0  0
    5.3285  -10.5216   13.7203 C   0  0  0  0  0  0  0  0  0  0  0  0
    4.2431   -9.8253   13.4233 N   0  0  0  0  0  0  0  0  0  0  0  0
   -6.3843  -12.7185   12.1624 H   0  0  0  0  0  0  0  0  0  0  0  0
   -4.9966  -11.6793   12.5116 H   0  0  0  0  0  0  0  0  0  0  0  0
   -5.9676  -12.2789   13.7871 H   0  0  0  0  0  0  0  0  0  0  0  0
   -4.4501  -14.9252   13.9668 H   0  0  0  0  0  0  0  0  0  0  0  0
   -4.3831  -13.4528   13.8014 H   0  0  0  0  0  0  0  0  0  0  0  0
   -8.7473  -14.8685   16.3189 H   0  0  0  0  0  0  0  0  0  0  0  0
   -8.0949  -17.2814   15.7147 H   0  0  0  0  0  0  0  0  0  0  0  0
   -6.6115  -16.3627   12.1955 H   0  0  0  0  0  0  0  0  0  0  0  0
   -6.0766  -17.0602   13.7982 H   0  0  0  0  0  0  0  0  0  0  0  0
   -6.8890  -17.9696   12.4987 H   0  0  0  0  0  0  0  0  0  0  0  0
   -3.0494  -14.1482   13.8067 H   0  0  0  0  0  0  0  0  0  0  0  0
   -2.1177  -15.3322   10.3134 H   0  0  0  0  0  0  0  0  0  0  0  0
   -3.3051  -15.9603   10.5920 H   0  0  0  0  0  0  0  0  0  0  0  0
   -3.4113  -14.4480    9.8567 H   0  0  0  0  0  0  0  0  0  0  0  0
   -1.1739  -14.1243   10.8433 H   0  0  0  0  0  0  0  0  0  0  0  0
   -0.8549  -15.3251   11.7839 H   0  0  0  0  0  0  0  0  0  0  0  0
    0.6040  -13.6407   12.9460 H   0  0  0  0  0  0  0  0  0  0  0  0
    2.1569  -10.7979   11.6313 H   0  0  0  0  0  0  0  0  0  0  0  0
    1.4482  -11.6807   13.4718 H   0  0  0  0  0  0  0  0  0  0  0  0
    3.6649  -11.3244   15.9683 H   0  0  0  0  0  0  0  0  0  0  0  0
    6.2940  -10.1503   13.6623 H   0  0  0  0  0  0  0  0  0  0  0  0
    3.9944   -8.9664   12.9659 H   0  0  0  0  0  0  0  0  0  0  0  0
  1  2  1  0
  2  3  1  0
  3  4  1  0
  4  5  2  0
  4  6  1  0
  6  7  1  0
  7  8  2  0
  8  9  1  0
  9 10  1  0
  9 11  1  0
  3 12  1  0
 12 13  1  0
 12 14  1  0
 14 15  1  0
 15 16  1  0
 16 17  2  0
 16 18  1  0
 18 19  1  0
 19 20  2  0
 20 21  1  0
 21 22  2  0
 22 23  1  0
 11  6  2  0
 23 19  1  0
  1 24  1  0
  1 25  1  0
  1 26  1  0
  2 27  1  0
  2 28  1  0
  7 29  1  0
  8 30  1  0
 10 31  1  0
 10 32  1  0
 10 33  1  0
 12 34  1  0
 13 35  1  0
 13 36  1  0
 13 37  1  0
 14 38  1  0
 14 39  1  0
 15 40  1  0
 18 41  1  0
 18 42  1  0
 20 43  1  0
 22 44  1  0
 23 45  1  0
M  END
>  <Energy>  (853) 
1670.0335187657138

>  <compound_id>  (853) 
10043

>  <target_id>  (853) 
1

>  <reference_id>  (853) 
112

>  <inspiration_ids>  (853) 
[112, 80]

>  <energy_score>  (853) 
1573.922721684365

>  <distance_score>  (853) 
11.410387251555008

>  <path>  (853) 
/opt/xchem-fragalysis-2/maxwin/BulkDock/SCRATCH/511014/C10043-P112/C10043-P112.minimised.mol

>  <scratch_subdir>  (853) 
/opt/xchem-fragalysis-2/maxwin/BulkDock/SCRATCH/511014/C10043-P112

>  <fragmenstein_runtime>  (853) 
22.14377784729004

>  <fragmenstein_outcome>  (853) 
too moved

>  <fragmenstein_mode>  (853) 
expansion

>  <fragmenstein_error>  (853) 


$$$$
C10043-P80
     RDKit          3D

 45 46  0  0  0  0  0  0  0  0999 V2000
   -7.4131  -14.3285   13.2941 C   0  0  0  0  0  0  0  0  0  0  0  0
   -6.5699  -15.6663   14.2528 C   0  0  0  0  0  0  0  0  0  0  0  0
   -7.0082  -16.8180   13.8483 N   0  0  0  0  0  0  0  0  0  0  0  0
   -8.7847  -17.0781   13.3451 C   0  0  0  0  0  0  0  0  0  0  0  0
   -9.7102  -16.3720   13.4118 O   0  0  0  0  0  0  0  0  0  0  0  0
   -9.2903  -18.7153   12.4124 C   0  0  0  0  0  0  0  0  0  0  0  0
   -8.4377  -19.6537   11.6273 C   0  0  0  0  0  0  0  0  0  0  0  0
   -9.1504  -20.7835   11.3208 C   0  0  0  0  0  0  0  0  0  0  0  0
  -10.0727  -20.8074   12.2966 N   0  0  0  0  0  0  0  0  0  0  0  0
  -10.4713  -22.0446   12.9228 C   0  0  0  0  0  0  0  0  0  0  0  0
  -10.3734  -19.5494   12.7598 N   0  0  0  0  0  0  0  0  0  0  0  0
   -5.9544  -15.3278   14.8564 C   0  0  0  0  0  0  0  0  0  0  0  0
   -6.9183  -14.6243   16.2204 C   0  0  0  0  0  0  0  0  0  0  0  0
   -4.3123  -15.1647   16.0607 C   0  0  0  0  0  0  0  0  0  0  0  0
   -2.4816  -14.7374   15.9382 N   0  0  0  0  0  0  0  0  0  0  0  0
   -1.3868  -13.7375   17.0222 C   0  0  0  0  0  0  0  0  0  0  0  0
   -1.7857  -13.1069   17.9954 O   0  0  0  0  0  0  0  0  0  0  0  0
    0.7369  -13.6399   16.9142 C   0  0  0  0  0  0  0  0  0  0  0  0
    1.9399  -12.4713   15.7286 C   0  0  0  0  0  0  0  0  0  0  0  0
    3.3793  -11.4190   16.3492 C   0  0  0  0  0  0  0  0  0  0  0  0
    4.4742  -10.8219   15.0572 N   0  0  0  0  0  0  0  0  0  0  0  0
    4.6636  -11.9476   14.5434 C   0  0  0  0  0  0  0  0  0  0  0  0
    3.6085  -11.7684   15.3872 N   0  0  0  0  0  0  0  0  0  0  0  0
   -8.3542  -14.0604   13.7871 H   0  0  0  0  0  0  0  0  0  0  0  0
   -6.7788  -13.4372   13.2435 H   0  0  0  0  0  0  0  0  0  0  0  0
   -7.6329  -14.7007   12.2866 H   0  0  0  0  0  0  0  0  0  0  0  0
   -7.6770  -15.7413   14.6867 H   0  0  0  0  0  0  0  0  0  0  0  0
   -6.0927  -15.7806   13.1538 H   0  0  0  0  0  0  0  0  0  0  0  0
   -7.3992  -19.4479   11.4377 H   0  0  0  0  0  0  0  0  0  0  0  0
   -8.9383  -21.6789   10.7733 H   0  0  0  0  0  0  0  0  0  0  0  0
  -10.1989  -22.0022   13.9758 H   0  0  0  0  0  0  0  0  0  0  0  0
  -11.5239  -22.2329   12.7437 H   0  0  0  0  0  0  0  0  0  0  0  0
   -9.9096  -22.8727   12.4771 H   0  0  0  0  0  0  0  0  0  0  0  0
   -5.3534  -14.4481   14.1850 H   0  0  0  0  0  0  0  0  0  0  0  0
   -6.9605  -15.3818   17.0101 H   0  0  0  0  0  0  0  0  0  0  0  0
   -6.4177  -13.7217   16.5788 H   0  0  0  0  0  0  0  0  0  0  0  0
   -7.9320  -14.3220   15.9357 H   0  0  0  0  0  0  0  0  0  0  0  0
   -4.5852  -14.5144   16.8952 H   0  0  0  0  0  0  0  0  0  0  0  0
   -4.2535  -16.1915   16.4375 H   0  0  0  0  0  0  0  0  0  0  0  0
   -1.9589  -15.0840   15.1801 H   0  0  0  0  0  0  0  0  0  0  0  0
    1.2171  -13.7539   17.8839 H   0  0  0  0  0  0  0  0  0  0  0  0
    1.0407  -14.5378   16.4249 H   0  0  0  0  0  0  0  0  0  0  0  0
    3.3183  -10.6282   17.1249 H   0  0  0  0  0  0  0  0  0  0  0  0
    5.3294  -12.4452   13.8597 H   0  0  0  0  0  0  0  0  0  0  0  0
    3.3455  -10.9588   14.7028 H   0  0  0  0  0  0  0  0  0  0  0  0
  1  2  1  0
  2  3  1  0
  3  4  1  0
  4  5  2  0
  4  6  1  0
  6  7  1  0
  7  8  2  0
  8  9  1  0
  9 10  1  0
  9 11  1  0
  3 12  1  0
 12 13  1  0
 12 14  1  0
 14 15  1  0
 15 16  1  0
 16 17  2  0
 16 18  1  0
 18 19  1  0
 19 20  2  0
 20 21  1  0
 21 22  2  0
 22 23  1  0
 11  6  2  0
 23 19  1  0
  1 24  1  0
  1 25  1  0
  1 26  1  0
  2 27  1  0
  2 28  1  0
  7 29  1  0
  8 30  1  0
 10 31  1  0
 10 32  1  0
 10 33  1  0
 12 34  1  0
 13 35  1  0
 13 36  1  0
 13 37  1  0
 14 38  1  0
 14 39  1  0
 15 40  1  0
 18 41  1  0
 18 42  1  0
 20 43  1  0
 22 44  1  0
 23 45  1  0
M  END
>  <Energy>  (854) 
1877.1236456746487

>  <compound_id>  (854) 
10043

>  <target_id>  (854) 
1

>  <reference_id>  (854) 
80

>  <inspiration_ids>  (854) 
[112, 80]

>  <energy_score>  (854) 
1781.012848593301

>  <distance_score>  (854) 
10.186030435643943

>  <path>  (854) 
/opt/xchem-fragalysis-2/maxwin/BulkDock/SCRATCH/511014/C10043-P80/C10043-P80.minimised.mol

>  <scratch_subdir>  (854) 
/opt/xchem-fragalysis-2/maxwin/BulkDock/SCRATCH/511014/C10043-P80

>  <fragmenstein_runtime>  (854) 
20.029919624328613

>  <fragmenstein_outcome>  (854) 
too moved

>  <fragmenstein_mode>  (854) 
expansion

>  <fragmenstein_error>  (854) 


$$$$
C10044-P112
     RDKit          3D

 42 43  0  0  0  0  0  0  0  0999 V2000
    0.9963  -20.1957   12.5841 C   0  0  0  0  0  0  0  0  0  0  0  0
    0.8743  -19.7871   13.9487 N   0  0  0  0  0  0  0  0  0  0  0  0
   -0.9742  -20.6550   13.7941 C   0  0  0  0  0  0  0  0  0  0  0  0
   -2.3241  -22.5153   13.5848 C   0  0  0  0  0  0  0  0  0  0  0  0
   -3.3139  -23.8741   13.1192 C   0  0  0  0  0  0  0  0  0  0  0  0
   -3.7653  -24.2972   11.8701 C   0  0  0  0  0  0  0  0  0  0  0  0
   -4.7093  -25.1570   11.0724 C   0  0  0  0  0  0  0  0  0  0  0  0
   -5.1149  -24.4112    9.7798 C   0  0  0  0  0  0  0  0  0  0  0  0
   -5.9973  -25.4888   11.7978 C   0  0  0  0  0  0  0  0  0  0  0  0
   -4.0293  -26.4896   10.6867 C   0  0  0  0  0  0  0  0  0  0  0  0
   -2.5869  -23.9812   11.3987 N   0  0  0  0  0  0  0  0  0  0  0  0
   -1.7959  -23.5102   12.3233 N   0  0  0  0  0  0  0  0  0  0  0  0
    2.1480  -20.2504   14.7536 C   0  0  0  0  0  0  0  0  0  0  0  0
    2.3536  -21.2769   15.3769 O   0  0  0  0  0  0  0  0  0  0  0  0
    3.4772  -19.1516   14.9694 C   0  0  0  0  0  0  0  0  0  0  0  0
    4.5960  -19.8050   15.3699 F   0  0  0  0  0  0  0  0  0  0  0  0
    3.1839  -17.9421   15.5402 C   0  0  0  0  0  0  0  0  0  0  0  0
    3.4389  -16.9009   16.5716 C   0  0  0  0  0  0  0  0  0  0  0  0
    3.9822  -16.2851   17.6895 C   0  0  0  0  0  0  0  0  0  0  0  0
    3.4239  -15.1293   18.2057 N   0  0  0  0  0  0  0  0  0  0  0  0
    2.4178  -14.9933   17.4612 C   0  0  0  0  0  0  0  0  0  0  0  0
    2.6296  -15.8259   16.4317 N   0  0  0  0  0  0  0  0  0  0  0  0
    1.7155  -20.9967   12.4120 H   0  0  0  0  0  0  0  0  0  0  0  0
    1.8004  -19.4621   12.3421 H   0  0  0  0  0  0  0  0  0  0  0  0
    0.4245  -19.7585   11.7889 H   0  0  0  0  0  0  0  0  0  0  0  0
   -0.9424  -19.8972   13.0256 H   0  0  0  0  0  0  0  0  0  0  0  0
   -1.6409  -19.8993   14.2372 H   0  0  0  0  0  0  0  0  0  0  0  0
   -3.5538  -24.4505   13.9769 H   0  0  0  0  0  0  0  0  0  0  0  0
   -5.5033  -23.4149   10.0076 H   0  0  0  0  0  0  0  0  0  0  0  0
   -4.2561  -24.2717    9.1122 H   0  0  0  0  0  0  0  0  0  0  0  0
   -5.8772  -24.9595    9.2147 H   0  0  0  0  0  0  0  0  0  0  0  0
   -6.5049  -24.5773   12.1198 H   0  0  0  0  0  0  0  0  0  0  0  0
   -5.7700  -26.1387   12.6454 H   0  0  0  0  0  0  0  0  0  0  0  0
   -6.6970  -26.0415   11.1592 H   0  0  0  0  0  0  0  0  0  0  0  0
   -4.7153  -27.1374   10.1285 H   0  0  0  0  0  0  0  0  0  0  0  0
   -3.1472  -26.3328   10.0551 H   0  0  0  0  0  0  0  0  0  0  0  0
   -3.7010  -27.0383   11.5775 H   0  0  0  0  0  0  0  0  0  0  0  0
   -2.1608  -24.2590   10.5216 H   0  0  0  0  0  0  0  0  0  0  0  0
    2.2558  -17.7558   15.0497 H   0  0  0  0  0  0  0  0  0  0  0  0
    4.7513  -16.4366   18.3826 H   0  0  0  0  0  0  0  0  0  0  0  0
    1.6855  -14.2025   17.4660 H   0  0  0  0  0  0  0  0  0  0  0  0
    2.2616  -15.5593   15.5720 H   0  0  0  0  0  0  0  0  0  0  0  0
  1  2  1  0
  2  3  1  0
  3  4  1  0
  4  5  1  0
  5  6  2  0
  6  7  1  0
  7  8  1  0
  7  9  1  0
  7 10  1  0
  6 11  1  0
 11 12  1  0
  2 13  1  0
 13 14  2  0
 13 15  1  0
 15 16  1  0
 15 17  2  3
 17 18  1  0
 18 19  2  0
 19 20  1  0
 20 21  2  0
 21 22  1  0
 12  4  2  0
 22 18  1  0
  1 23  1  0
  1 24  1  0
  1 25  1  0
  3 26  1  0
  3 27  1  0
  5 28  1  0
  8 29  1  0
  8 30  1  0
  8 31  1  0
  9 32  1  0
  9 33  1  0
  9 34  1  0
 10 35  1  0
 10 36  1  0
 10 37  1  0
 11 38  1  0
 17 39  1  0
 19 40  1  0
 21 41  1  0
 22 42  1  0
M  END
>  <Energy>  (855) 
878.92975613814588

>  <compound_id>  (855) 
10044

>  <target_id>  (855) 
1

>  <reference_id>  (855) 
112

>  <inspiration_ids>  (855) 
[112, 80]

>  <energy_score>  (855) 
795.980181753891

>  <distance_score>  (855) 
12.611695755438907

>  <path>  (855) 
/opt/xchem-fragalysis-2/maxwin/BulkDock/SCRATCH/511014/C10044-P112/C10044-P112.minimised.mol

>  <scratch_subdir>  (855) 
/opt/xchem-fragalysis-2/maxwin/BulkDock/SCRATCH/511014/C10044-P112

>  <fragmenstein_runtime>  (855) 
20.953601121902466

>  <fragmenstein_outcome>  (855) 
too moved

>  <fragmenstein_mode>  (855) 
expansion

>  <fragmenstein_error>  (855) 


$$$$
C10044-P80
     RDKit          3D

 42 43  0  0  0  0  0  0  0  0999 V2000
   -2.9867  -17.3223   14.8474 C   0  0  0  0  0  0  0  0  0  0  0  0
   -3.3965  -16.0491   14.3949 N   0  0  0  0  0  0  0  0  0  0  0  0
   -4.6481  -16.5512   14.8517 C   0  0  0  0  0  0  0  0  0  0  0  0
   -6.0552  -17.2057   13.6706 C   0  0  0  0  0  0  0  0  0  0  0  0
   -6.1770  -18.5612   12.7264 C   0  0  0  0  0  0  0  0  0  0  0  0
   -7.4546  -18.7271   12.0954 C   0  0  0  0  0  0  0  0  0  0  0  0
   -8.6280  -20.1782   11.7238 C   0  0  0  0  0  0  0  0  0  0  0  0
   -9.1411  -20.2684   10.2950 C   0  0  0  0  0  0  0  0  0  0  0  0
   -8.3576  -21.7166   12.2431 C   0  0  0  0  0  0  0  0  0  0  0  0
  -10.0195  -20.0768   12.4104 C   0  0  0  0  0  0  0  0  0  0  0  0
   -7.9784  -17.3338   13.0222 N   0  0  0  0  0  0  0  0  0  0  0  0
   -7.0778  -16.4280   13.3355 N   0  0  0  0  0  0  0  0  0  0  0  0
   -2.3088  -14.7262   15.0530 C   0  0  0  0  0  0  0  0  0  0  0  0
   -2.5122  -14.1425   16.1120 O   0  0  0  0  0  0  0  0  0  0  0  0
   -0.7623  -14.0066   13.8694 C   0  0  0  0  0  0  0  0  0  0  0  0
   -0.1828  -14.9444   13.0191 F   0  0  0  0  0  0  0  0  0  0  0  0
   -0.0778  -12.7936   13.3155 C   0  0  0  0  0  0  0  0  0  0  0  0
   -0.0245  -11.2542   13.2947 C   0  0  0  0  0  0  0  0  0  0  0  0
   -0.8553  -10.1432   13.0843 C   0  0  0  0  0  0  0  0  0  0  0  0
   -0.2053   -8.9188   13.0928 N   0  0  0  0  0  0  0  0  0  0  0  0
    1.0405   -9.2134   13.3096 C   0  0  0  0  0  0  0  0  0  0  0  0
    1.1767  -10.5590   13.4748 N   0  0  0  0  0  0  0  0  0  0  0  0
   -2.0761  -17.9316   14.9589 H   0  0  0  0  0  0  0  0  0  0  0  0
   -3.1945  -17.7885   13.9530 H   0  0  0  0  0  0  0  0  0  0  0  0
   -3.4891  -17.6624   15.8014 H   0  0  0  0  0  0  0  0  0  0  0  0
   -5.0589  -15.9686   14.0377 H   0  0  0  0  0  0  0  0  0  0  0  0
   -5.0010  -16.1882   15.8385 H   0  0  0  0  0  0  0  0  0  0  0  0
   -5.3979  -19.3194   12.6193 H   0  0  0  0  0  0  0  0  0  0  0  0
   -9.3860  -21.2678    9.9266 H   0  0  0  0  0  0  0  0  0  0  0  0
   -9.9658  -19.6419   10.0463 H   0  0  0  0  0  0  0  0  0  0  0  0
   -8.5477  -19.7119    9.6454 H   0  0  0  0  0  0  0  0  0  0  0  0
   -8.3518  -22.4663   11.4553 H   0  0  0  0  0  0  0  0  0  0  0  0
   -7.4913  -21.7770   12.9029 H   0  0  0  0  0  0  0  0  0  0  0  0
   -9.1695  -22.1307   12.8662 H   0  0  0  0  0  0  0  0  0  0  0  0
  -10.2794  -19.0387   12.3811 H   0  0  0  0  0  0  0  0  0  0  0  0
  -10.6091  -20.8915   12.0031 H   0  0  0  0  0  0  0  0  0  0  0  0
  -10.2662  -20.3874   13.4381 H   0  0  0  0  0  0  0  0  0  0  0  0
   -8.9675  -17.1488   13.1684 H   0  0  0  0  0  0  0  0  0  0  0  0
    0.4653  -13.1446   12.4391 H   0  0  0  0  0  0  0  0  0  0  0  0
   -1.9223  -10.1136   12.9330 H   0  0  0  0  0  0  0  0  0  0  0  0
    1.8650   -8.5197   13.4019 H   0  0  0  0  0  0  0  0  0  0  0  0
    2.0105  -10.9180   13.8753 H   0  0  0  0  0  0  0  0  0  0  0  0
  1  2  1  0
  2  3  1  0
  3  4  1  0
  4  5  1  0
  5  6  2  0
  6  7  1  0
  7  8  1  0
  7  9  1  0
  7 10  1  0
  6 11  1  0
 11 12  1  0
  2 13  1  0
 13 14  2  0
 13 15  1  0
 15 16  1  0
 15 17  2  3
 17 18  1  0
 18 19  2  0
 19 20  1  0
 20 21  2  0
 21 22  1  0
 12  4  2  0
 22 18  1  0
  1 23  1  0
  1 24  1  0
  1 25  1  0
  3 26  1  0
  3 27  1  0
  5 28  1  0
  8 29  1  0
  8 30  1  0
  8 31  1  0
  9 32  1  0
  9 33  1  0
  9 34  1  0
 10 35  1  0
 10 36  1  0
 10 37  1  0
 11 38  1  0
 17 39  1  0
 19 40  1  0
 21 41  1  0
 22 42  1  0
M  END
>  <Energy>  (856) 
624.12102309983561

>  <compound_id>  (856) 
10044

>  <target_id>  (856) 
1

>  <reference_id>  (856) 
80

>  <inspiration_ids>  (856) 
[112, 80]

>  <energy_score>  (856) 
541.1714487155425

>  <distance_score>  (856) 
11.307913043198292

>  <path>  (856) 
/opt/xchem-fragalysis-2/maxwin/BulkDock/SCRATCH/511014/C10044-P80/C10044-P80.minimised.mol

>  <scratch_subdir>  (856) 
/opt/xchem-fragalysis-2/maxwin/BulkDock/SCRATCH/511014/C10044-P80

>  <fragmenstein_runtime>  (856) 
15.225792407989502

>  <fragmenstein_outcome>  (856) 
too moved

>  <fragmenstein_mode>  (856) 
expansion

>  <fragmenstein_error>  (856) 


$$$$
C10045-P112
     RDKit          3D

 45 46  0  0  0  0  0  0  0  0999 V2000
    3.1988  -15.5738   12.9655 C   0  0  0  0  0  0  0  0  0  0  0  0
    2.6010  -13.3871   13.5980 C   0  0  0  0  0  0  0  0  0  0  0  0
    1.2990  -14.0298   12.0798 C   0  0  0  0  0  0  0  0  0  0  0  0
    1.2555  -15.7181   10.9554 C   0  0  0  0  0  0  0  0  0  0  0  0
    2.5373  -16.2464   10.0684 C   0  0  0  0  0  0  0  0  0  0  0  0
    0.2866  -16.6429    9.9652 N   0  0  0  0  0  0  0  0  0  0  0  0
    0.4468  -17.0320    8.4762 C   0  0  0  0  0  0  0  0  0  0  0  0
    1.2694  -16.6844    7.6627 O   0  0  0  0  0  0  0  0  0  0  0  0
   -0.4762  -18.0911    7.9176 C   0  0  0  0  0  0  0  0  0  0  0  0
   -0.0190  -19.3569    7.5246 C   0  0  0  0  0  0  0  0  0  0  0  0
   -1.1403  -20.1253    7.1743 C   0  0  0  0  0  0  0  0  0  0  0  0
   -2.2610  -19.4181    7.2441 N   0  0  0  0  0  0  0  0  0  0  0  0
   -1.8473  -18.2010    7.6937 N   0  0  0  0  0  0  0  0  0  0  0  0
   -2.8992  -17.2445    7.8936 C   0  0  0  0  0  0  0  0  0  0  0  0
    4.3147  -12.0575   14.4178 N   0  0  0  0  0  0  0  0  0  0  0  0
    6.1791  -11.6941   13.8437 C   0  0  0  0  0  0  0  0  0  0  0  0
    6.5712  -12.3561   12.9285 O   0  0  0  0  0  0  0  0  0  0  0  0
    7.7838  -10.1753   14.4430 C   0  0  0  0  0  0  0  0  0  0  0  0
    9.5616   -9.1525   15.1356 C   0  0  0  0  0  0  0  0  0  0  0  0
    9.5248   -7.3286   14.7963 C   0  0  0  0  0  0  0  0  0  0  0  0
   10.6365   -5.8391   14.8534 N   0  0  0  0  0  0  0  0  0  0  0  0
   11.1005   -6.2078   15.9850 C   0  0  0  0  0  0  0  0  0  0  0  0
    9.7122   -7.3533   15.5431 N   0  0  0  0  0  0  0  0  0  0  0  0
    4.4426  -15.6175   12.4757 H   0  0  0  0  0  0  0  0  0  0  0  0
    3.4750  -16.5419   14.0367 H   0  0  0  0  0  0  0  0  0  0  0  0
    3.4130  -16.5267   12.1420 H   0  0  0  0  0  0  0  0  0  0  0  0
    1.6322  -12.7364   13.9092 H   0  0  0  0  0  0  0  0  0  0  0  0
    1.0738  -13.1772   11.4331 H   0  0  0  0  0  0  0  0  0  0  0  0
    0.3332  -14.1104   12.5918 H   0  0  0  0  0  0  0  0  0  0  0  0
    0.9964  -16.4096   11.7210 H   0  0  0  0  0  0  0  0  0  0  0  0
    3.5708  -16.3421   10.3953 H   0  0  0  0  0  0  0  0  0  0  0  0
    2.4009  -17.2968    9.7759 H   0  0  0  0  0  0  0  0  0  0  0  0
    2.5978  -15.6066    9.2005 H   0  0  0  0  0  0  0  0  0  0  0  0
   -0.4629  -17.1855   10.3731 H   0  0  0  0  0  0  0  0  0  0  0  0
    1.0127  -19.6794    7.5547 H   0  0  0  0  0  0  0  0  0  0  0  0
   -1.1798  -21.1587    6.8571 H   0  0  0  0  0  0  0  0  0  0  0  0
   -2.9188  -16.5879    7.0215 H   0  0  0  0  0  0  0  0  0  0  0  0
   -2.6937  -16.6795    8.7978 H   0  0  0  0  0  0  0  0  0  0  0  0
   -3.8526  -17.7710    7.9653 H   0  0  0  0  0  0  0  0  0  0  0  0
    4.1188  -11.4985   15.2548 H   0  0  0  0  0  0  0  0  0  0  0  0
    8.6757  -10.7966   14.1483 H   0  0  0  0  0  0  0  0  0  0  0  0
    7.9470  -10.1596   15.5948 H   0  0  0  0  0  0  0  0  0  0  0  0
    8.4453   -6.8393   14.3566 H   0  0  0  0  0  0  0  0  0  0  0  0
   12.1020   -6.5703   16.2396 H   0  0  0  0  0  0  0  0  0  0  0  0
    8.6684   -6.8840   15.9327 H   0  0  0  0  0  0  0  0  0  0  0  0
  1  2  1  0
  2  3  1  0
  3  4  1  0
  4  5  1  0
  4  6  1  0
  6  7  1  0
  7  8  2  0
  7  9  1  0
  9 10  2  0
 10 11  1  0
 11 12  2  0
 12 13  1  0
 13 14  1  0
  2 15  1  0
 15 16  1  0
 16 17  2  0
 16 18  1  0
 18 19  1  0
 19 20  2  0
 20 21  1  0
 21 22  2  0
 22 23  1  0
 13  9  1  0
 23 19  1  0
  1 24  1  0
  1 25  1  0
  1 26  1  0
  2 27  1  0
  3 28  1  0
  3 29  1  0
  4 30  1  0
  5 31  1  0
  5 32  1  0
  5 33  1  0
  6 34  1  0
 10 35  1  0
 11 36  1  0
 14 37  1  0
 14 38  1  0
 14 39  1  0
 15 40  1  0
 18 41  1  0
 18 42  1  0
 20 43  1  0
 22 44  1  0
 23 45  1  0
M  END
>  <Energy>  (857) 
2102.3936752615132

>  <compound_id>  (857) 
10045

>  <target_id>  (857) 
1

>  <reference_id>  (857) 
112

>  <inspiration_ids>  (857) 
[112, 80]

>  <energy_score>  (857) 
2090.240427673992

>  <distance_score>  (857) 
11.790493245264344

>  <path>  (857) 
/opt/xchem-fragalysis-2/maxwin/BulkDock/SCRATCH/511014/C10045-P112/C10045-P112.minimised.mol

>  <scratch_subdir>  (857) 
/opt/xchem-fragalysis-2/maxwin/BulkDock/SCRATCH/511014/C10045-P112

>  <fragmenstein_runtime>  (857) 
22.989320993423462

>  <fragmenstein_outcome>  (857) 
too moved

>  <fragmenstein_mode>  (857) 
expansion

>  <fragmenstein_error>  (857) 


$$$$
C10045-P80
     RDKit          3D

 45 46  0  0  0  0  0  0  0  0999 V2000
    4.3749  -14.9172    9.3822 C   0  0  0  0  0  0  0  0  0  0  0  0
    3.1017  -13.9284    9.5309 C   0  0  0  0  0  0  0  0  0  0  0  0
    2.0901  -15.5821    9.5225 C   0  0  0  0  0  0  0  0  0  0  0  0
    1.7436  -16.6268    8.2447 C   0  0  0  0  0  0  0  0  0  0  0  0
    2.0325  -16.1776    6.8146 C   0  0  0  0  0  0  0  0  0  0  0  0
    0.3690  -17.2768    8.1960 N   0  0  0  0  0  0  0  0  0  0  0  0
   -0.1812  -18.2941    7.2910 C   0  0  0  0  0  0  0  0  0  0  0  0
    0.3425  -18.9230    6.4154 O   0  0  0  0  0  0  0  0  0  0  0  0
   -1.6529  -18.5043    7.4180 C   0  0  0  0  0  0  0  0  0  0  0  0
   -2.6812  -17.6171    7.7220 C   0  0  0  0  0  0  0  0  0  0  0  0
   -3.8847  -18.3321    7.5852 C   0  0  0  0  0  0  0  0  0  0  0  0
   -3.6869  -19.5806    7.1854 N   0  0  0  0  0  0  0  0  0  0  0  0
   -2.3383  -19.6955    7.1878 N   0  0  0  0  0  0  0  0  0  0  0  0
   -1.7952  -21.0185    7.0072 C   0  0  0  0  0  0  0  0  0  0  0  0
    3.6398  -12.7694   10.8310 N   0  0  0  0  0  0  0  0  0  0  0  0
    3.1391  -11.0827   11.2077 C   0  0  0  0  0  0  0  0  0  0  0  0
    2.3750  -10.3770   10.5664 O   0  0  0  0  0  0  0  0  0  0  0  0
    3.8287  -10.3149   13.0139 C   0  0  0  0  0  0  0  0  0  0  0  0
    3.9978   -8.3558   12.9940 C   0  0  0  0  0  0  0  0  0  0  0  0
    4.7504   -7.2339   13.3776 C   0  0  0  0  0  0  0  0  0  0  0  0
    4.3808   -6.0262   12.6647 N   0  0  0  0  0  0  0  0  0  0  0  0
    3.6581   -6.3151   11.6032 C   0  0  0  0  0  0  0  0  0  0  0  0
    3.3489   -7.6444   11.6107 N   0  0  0  0  0  0  0  0  0  0  0  0
    5.2946  -14.4442    9.7237 H   0  0  0  0  0  0  0  0  0  0  0  0
    4.3408  -15.4666    8.4349 H   0  0  0  0  0  0  0  0  0  0  0  0
    4.4672  -15.8775    9.9136 H   0  0  0  0  0  0  0  0  0  0  0  0
    2.6833  -13.1936    8.8811 H   0  0  0  0  0  0  0  0  0  0  0  0
    1.2068  -15.5862   10.1843 H   0  0  0  0  0  0  0  0  0  0  0  0
    2.6700  -16.2953   10.1231 H   0  0  0  0  0  0  0  0  0  0  0  0
    2.4025  -17.4906    8.4132 H   0  0  0  0  0  0  0  0  0  0  0  0
    1.4916  -15.2597    6.5674 H   0  0  0  0  0  0  0  0  0  0  0  0
    1.7100  -16.9160    6.0742 H   0  0  0  0  0  0  0  0  0  0  0  0
    3.1057  -16.0860    6.6302 H   0  0  0  0  0  0  0  0  0  0  0  0
   -0.3400  -17.0157    8.8701 H   0  0  0  0  0  0  0  0  0  0  0  0
   -2.5777  -16.5789    7.9865 H   0  0  0  0  0  0  0  0  0  0  0  0
   -4.8964  -17.9878    7.7224 H   0  0  0  0  0  0  0  0  0  0  0  0
   -2.5733  -21.7676    7.1746 H   0  0  0  0  0  0  0  0  0  0  0  0
   -0.9798  -21.1656    7.7194 H   0  0  0  0  0  0  0  0  0  0  0  0
   -1.4249  -21.0949    5.9820 H   0  0  0  0  0  0  0  0  0  0  0  0
    4.3293  -13.0648   11.4749 H   0  0  0  0  0  0  0  0  0  0  0  0
    3.3391  -10.5624   13.9458 H   0  0  0  0  0  0  0  0  0  0  0  0
    4.8377  -10.7195   13.2832 H   0  0  0  0  0  0  0  0  0  0  0  0
    5.6634   -7.3091   13.9113 H   0  0  0  0  0  0  0  0  0  0  0  0
    3.3089   -5.6282   10.8461 H   0  0  0  0  0  0  0  0  0  0  0  0
    2.7674   -8.2222   11.0129 H   0  0  0  0  0  0  0  0  0  0  0  0
  1  2  1  0
  2  3  1  0
  3  4  1  0
  4  5  1  0
  4  6  1  0
  6  7  1  0
  7  8  2  0
  7  9  1  0
  9 10  2  0
 10 11  1  0
 11 12  2  0
 12 13  1  0
 13 14  1  0
  2 15  1  0
 15 16  1  0
 16 17  2  0
 16 18  1  0
 18 19  1  0
 19 20  2  0
 20 21  1  0
 21 22  2  0
 22 23  1  0
 13  9  1  0
 23 19  1  0
  1 24  1  0
  1 25  1  0
  1 26  1  0
  2 27  1  0
  3 28  1  0
  3 29  1  0
  4 30  1  0
  5 31  1  0
  5 32  1  0
  5 33  1  0
  6 34  1  0
 10 35  1  0
 11 36  1  0
 14 37  1  0
 14 38  1  0
 14 39  1  0
 15 40  1  0
 18 41  1  0
 18 42  1  0
 20 43  1  0
 22 44  1  0
 23 45  1  0
M  END
>  <Energy>  (858) 
341.2935636275194

>  <compound_id>  (858) 
10045

>  <target_id>  (858) 
1

>  <reference_id>  (858) 
80

>  <inspiration_ids>  (858) 
[112, 80]

>  <energy_score>  (858) 
329.14031603999337

>  <distance_score>  (858) 
12.478997718726701

>  <path>  (858) 
/opt/xchem-fragalysis-2/maxwin/BulkDock/SCRATCH/511014/C10045-P80/C10045-P80.minimised.mol

>  <scratch_subdir>  (858) 
/opt/xchem-fragalysis-2/maxwin/BulkDock/SCRATCH/511014/C10045-P80

>  <fragmenstein_runtime>  (858) 
23.503853797912598

>  <fragmenstein_outcome>  (858) 
too moved

>  <fragmenstein_mode>  (858) 
expansion

>  <fragmenstein_error>  (858) 


$$$$
C10046-P112
     RDKit          3D

 45 46  0  0  0  0  0  0  0  0999 V2000
   -3.5978   -9.5552   19.8170 C   0  0  0  0  0  0  0  0  0  0  0  0
   -2.5749   -9.8380   18.7211 C   0  0  0  0  0  0  0  0  0  0  0  0
   -2.1228  -11.3559   18.7835 C   0  0  0  0  0  0  0  0  0  0  0  0
   -2.8809  -12.3975   18.0896 N   0  0  0  0  0  0  0  0  0  0  0  0
   -2.3836  -13.8380   17.3680 C   0  0  0  0  0  0  0  0  0  0  0  0
   -1.2448  -14.1833   17.2521 O   0  0  0  0  0  0  0  0  0  0  0  0
   -3.6527  -15.2984   16.7118 C   0  0  0  0  0  0  0  0  0  0  0  0
   -3.6022  -16.7813   17.5871 C   0  0  0  0  0  0  0  0  0  0  0  0
   -4.2324  -16.4484   15.2115 C   0  0  0  0  0  0  0  0  0  0  0  0
   -5.8537  -16.5107   14.1454 C   0  0  0  0  0  0  0  0  0  0  0  0
   -6.4282  -17.0969   13.0070 C   0  0  0  0  0  0  0  0  0  0  0  0
   -7.1002  -16.0042   12.4530 C   0  0  0  0  0  0  0  0  0  0  0  0
   -7.8629  -15.4261   13.3658 N   0  0  0  0  0  0  0  0  0  0  0  0
   -7.3888  -16.0152   14.4764 N   0  0  0  0  0  0  0  0  0  0  0  0
   -8.0246  -15.7194   15.7503 C   0  0  0  0  0  0  0  0  0  0  0  0
   -1.4152   -8.8931   18.8187 N   0  0  0  0  0  0  0  0  0  0  0  0
   -1.3626   -7.4551   18.7998 C   0  0  0  0  0  0  0  0  0  0  0  0
   -2.2411   -6.6440   18.7805 O   0  0  0  0  0  0  0  0  0  0  0  0
    0.0190   -6.9043   18.6875 C   0  0  0  0  0  0  0  0  0  0  0  0
    1.2827   -7.4131   18.4043 C   0  0  0  0  0  0  0  0  0  0  0  0
    2.2515   -6.4311   18.3239 N   0  0  0  0  0  0  0  0  0  0  0  0
    1.6131   -5.3106   18.5435 C   0  0  0  0  0  0  0  0  0  0  0  0
    0.2854   -5.5396   18.7703 N   0  0  0  0  0  0  0  0  0  0  0  0
   -3.9897   -8.5363   19.7368 H   0  0  0  0  0  0  0  0  0  0  0  0
   -3.1495   -9.6588   20.8111 H   0  0  0  0  0  0  0  0  0  0  0  0
   -4.4446  -10.2457   19.7475 H   0  0  0  0  0  0  0  0  0  0  0  0
   -3.0462   -9.6405   17.7533 H   0  0  0  0  0  0  0  0  0  0  0  0
   -2.0257  -11.6709   19.8276 H   0  0  0  0  0  0  0  0  0  0  0  0
   -1.1648  -11.4522   18.3260 H   0  0  0  0  0  0  0  0  0  0  0  0
   -3.8755  -12.3060   17.9873 H   0  0  0  0  0  0  0  0  0  0  0  0
   -3.2257  -14.8567   15.8315 H   0  0  0  0  0  0  0  0  0  0  0  0
   -4.5627  -16.9378   18.0847 H   0  0  0  0  0  0  0  0  0  0  0  0
   -2.8644  -16.8636   18.3912 H   0  0  0  0  0  0  0  0  0  0  0  0
   -3.4661  -17.7081   17.0313 H   0  0  0  0  0  0  0  0  0  0  0  0
   -3.5991  -16.2281   14.3857 H   0  0  0  0  0  0  0  0  0  0  0  0
   -3.6336  -17.3653   15.2441 H   0  0  0  0  0  0  0  0  0  0  0  0
   -6.1628  -17.9806   12.4575 H   0  0  0  0  0  0  0  0  0  0  0  0
   -7.1635  -15.6904   11.4266 H   0  0  0  0  0  0  0  0  0  0  0  0
   -7.2796  -15.7177   16.5472 H   0  0  0  0  0  0  0  0  0  0  0  0
   -8.4872  -14.7305   15.6890 H   0  0  0  0  0  0  0  0  0  0  0  0
   -8.7881  -16.4794   15.9288 H   0  0  0  0  0  0  0  0  0  0  0  0
   -0.4671   -9.2593   18.9181 H   0  0  0  0  0  0  0  0  0  0  0  0
    1.5669   -8.4376   18.2201 H   0  0  0  0  0  0  0  0  0  0  0  0
    2.0441   -4.3182   18.5500 H   0  0  0  0  0  0  0  0  0  0  0  0
   -0.4227   -4.8386   18.9434 H   0  0  0  0  0  0  0  0  0  0  0  0
  1  2  1  0
  2  3  1  0
  3  4  1  0
  4  5  1  0
  5  6  2  0
  5  7  1  0
  7  8  1  0
  7  9  1  0
  9 10  1  0
 10 11  2  0
 11 12  1  0
 12 13  2  0
 13 14  1  0
 14 15  1  0
  2 16  1  0
 16 17  1  0
 17 18  2  0
 17 19  1  0
 19 20  2  0
 20 21  1  0
 21 22  2  0
 22 23  1  0
 14 10  1  0
 23 19  1  0
  1 24  1  0
  1 25  1  0
  1 26  1  0
  2 27  1  0
  3 28  1  0
  3 29  1  0
  4 30  1  0
  7 31  1  0
  8 32  1  0
  8 33  1  0
  8 34  1  0
  9 35  1  0
  9 36  1  0
 11 37  1  0
 12 38  1  0
 15 39  1  0
 15 40  1  0
 15 41  1  0
 16 42  1  0
 20 43  1  0
 22 44  1  0
 23 45  1  0
M  END
>  <Energy>  (859) 
363.54749938949243

>  <compound_id>  (859) 
10046

>  <target_id>  (859) 
1

>  <reference_id>  (859) 
112

>  <inspiration_ids>  (859) 
[112, 80]

>  <energy_score>  (859) 
348.85126067655324

>  <distance_score>  (859) 
11.641013571918226

>  <path>  (859) 
/opt/xchem-fragalysis-2/maxwin/BulkDock/SCRATCH/511014/C10046-P112/C10046-P112.minimised.mol

>  <scratch_subdir>  (859) 
/opt/xchem-fragalysis-2/maxwin/BulkDock/SCRATCH/511014/C10046-P112

>  <fragmenstein_runtime>  (859) 
28.240283250808716

>  <fragmenstein_outcome>  (859) 
too moved

>  <fragmenstein_mode>  (859) 
expansion

>  <fragmenstein_error>  (859) 


$$$$
C10046-P80
     RDKit          3D

 45 46  0  0  0  0  0  0  0  0999 V2000
    0.1124  -13.0554   11.8252 C   0  0  0  0  0  0  0  0  0  0  0  0
    0.7123  -13.5224   13.1495 C   0  0  0  0  0  0  0  0  0  0  0  0
    0.5722  -15.7126   12.6081 C   0  0  0  0  0  0  0  0  0  0  0  0
    0.0208  -17.7649   12.2159 N   0  0  0  0  0  0  0  0  0  0  0  0
   -1.0923  -19.1289   13.2313 C   0  0  0  0  0  0  0  0  0  0  0  0
   -1.3938  -18.6908   14.2967 O   0  0  0  0  0  0  0  0  0  0  0  0
   -2.1365  -20.8888   12.9658 C   0  0  0  0  0  0  0  0  0  0  0  0
   -1.3636  -22.1845   12.6961 C   0  0  0  0  0  0  0  0  0  0  0  0
   -4.2417  -20.5720   12.5760 C   0  0  0  0  0  0  0  0  0  0  0  0
   -6.2881  -20.9093   12.8726 C   0  0  0  0  0  0  0  0  0  0  0  0
   -7.1325  -22.0792   13.1981 C   0  0  0  0  0  0  0  0  0  0  0  0
   -8.5647  -22.2772   13.1982 C   0  0  0  0  0  0  0  0  0  0  0  0
   -8.7860  -21.7527   12.0509 N   0  0  0  0  0  0  0  0  0  0  0  0
   -7.8271  -20.7184   12.0942 N   0  0  0  0  0  0  0  0  0  0  0  0
   -8.3654  -19.8074   11.2092 C   0  0  0  0  0  0  0  0  0  0  0  0
    1.5740  -11.5257   13.1802 N   0  0  0  0  0  0  0  0  0  0  0  0
    3.2937  -10.8177   13.9727 C   0  0  0  0  0  0  0  0  0  0  0  0
    4.0512  -11.5412   14.7006 O   0  0  0  0  0  0  0  0  0  0  0  0
    4.0081   -9.4629   13.7236 C   0  0  0  0  0  0  0  0  0  0  0  0
    4.1994   -8.0956   13.3285 C   0  0  0  0  0  0  0  0  0  0  0  0
    5.2973   -7.3344   13.5891 N   0  0  0  0  0  0  0  0  0  0  0  0
    6.1616   -8.2240   13.9439 C   0  0  0  0  0  0  0  0  0  0  0  0
    5.2911   -9.6908   14.0838 N   0  0  0  0  0  0  0  0  0  0  0  0
   -0.5471  -13.7825   11.3782 H   0  0  0  0  0  0  0  0  0  0  0  0
   -0.3775  -12.0862   11.9191 H   0  0  0  0  0  0  0  0  0  0  0  0
    0.9502  -12.8354   11.1893 H   0  0  0  0  0  0  0  0  0  0  0  0
   -0.2006  -13.4114   13.7087 H   0  0  0  0  0  0  0  0  0  0  0  0
    1.0178  -15.6634   11.6027 H   0  0  0  0  0  0  0  0  0  0  0  0
   -0.3758  -15.4507   12.1437 H   0  0  0  0  0  0  0  0  0  0  0  0
    0.3319  -18.1995   11.3507 H   0  0  0  0  0  0  0  0  0  0  0  0
   -2.3386  -21.0818   14.0329 H   0  0  0  0  0  0  0  0  0  0  0  0
   -2.0281  -23.0525   12.7338 H   0  0  0  0  0  0  0  0  0  0  0  0
   -0.5960  -22.3209   13.4666 H   0  0  0  0  0  0  0  0  0  0  0  0
   -0.8211  -22.1820   11.7476 H   0  0  0  0  0  0  0  0  0  0  0  0
   -4.3298  -20.4011   11.5230 H   0  0  0  0  0  0  0  0  0  0  0  0
   -4.3464  -19.5447   12.8731 H   0  0  0  0  0  0  0  0  0  0  0  0
   -6.5737  -22.9573   12.8439 H   0  0  0  0  0  0  0  0  0  0  0  0
   -9.2506  -23.0179   13.5907 H   0  0  0  0  0  0  0  0  0  0  0  0
   -7.4717  -19.2436   11.0153 H   0  0  0  0  0  0  0  0  0  0  0  0
   -8.8215  -20.2602   10.3209 H   0  0  0  0  0  0  0  0  0  0  0  0
   -9.2267  -19.3802   11.7410 H   0  0  0  0  0  0  0  0  0  0  0  0
    1.1697  -10.8124   12.5589 H   0  0  0  0  0  0  0  0  0  0  0  0
    3.6667   -7.7173   12.4300 H   0  0  0  0  0  0  0  0  0  0  0  0
    7.2465   -8.2957   14.0168 H   0  0  0  0  0  0  0  0  0  0  0  0
    5.7334  -10.6108   14.1795 H   0  0  0  0  0  0  0  0  0  0  0  0
  1  2  1  0
  2  3  1  0
  3  4  1  0
  4  5  1  0
  5  6  2  0
  5  7  1  0
  7  8  1  0
  7  9  1  0
  9 10  1  0
 10 11  2  0
 11 12  1  0
 12 13  2  0
 13 14  1  0
 14 15  1  0
  2 16  1  0
 16 17  1  0
 17 18  2  0
 17 19  1  0
 19 20  2  0
 20 21  1  0
 21 22  2  0
 22 23  1  0
 14 10  1  0
 23 19  1  0
  1 24  1  0
  1 25  1  0
  1 26  1  0
  2 27  1  0
  3 28  1  0
  3 29  1  0
  4 30  1  0
  7 31  1  0
  8 32  1  0
  8 33  1  0
  8 34  1  0
  9 35  1  0
  9 36  1  0
 11 37  1  0
 12 38  1  0
 15 39  1  0
 15 40  1  0
 15 41  1  0
 16 42  1  0
 20 43  1  0
 22 44  1  0
 23 45  1  0
M  END
>  <Energy>  (860) 
1498.2088432773903

>  <compound_id>  (860) 
10046

>  <target_id>  (860) 
1

>  <reference_id>  (860) 
80

>  <inspiration_ids>  (860) 
[112, 80]

>  <energy_score>  (860) 
1483.5126045644809

>  <distance_score>  (860) 
8.33260483477421

>  <path>  (860) 
/opt/xchem-fragalysis-2/maxwin/BulkDock/SCRATCH/511014/C10046-P80/C10046-P80.minimised.mol

>  <scratch_subdir>  (860) 
/opt/xchem-fragalysis-2/maxwin/BulkDock/SCRATCH/511014/C10046-P80

>  <fragmenstein_runtime>  (860) 
26.069079637527466

>  <fragmenstein_outcome>  (860) 
too moved

>  <fragmenstein_mode>  (860) 
expansion

>  <fragmenstein_error>  (860) 


$$$$
C10047-P112
     RDKit          3D

 33 34  0  0  0  0  0  0  0  0999 V2000
   -3.8129  -18.7289   17.1316 C   0  0  0  0  0  0  0  0  0  0  0  0
   -4.5268  -17.5943   16.3831 C   0  0  0  0  0  0  0  0  0  0  0  0
   -5.2821  -16.7288   17.4551 C   0  0  0  0  0  0  0  0  0  0  0  0
   -4.4367  -15.5887   17.9466 N   0  0  0  0  0  0  0  0  0  0  0  0
   -4.6116  -14.6926   19.0645 C   0  0  0  0  0  0  0  0  0  0  0  0
   -5.4342  -14.6810   19.9323 O   0  0  0  0  0  0  0  0  0  0  0  0
   -3.6510  -13.5516   19.0487 C   0  0  0  0  0  0  0  0  0  0  0  0
   -2.6275  -13.1496   18.2052 C   0  0  0  0  0  0  0  0  0  0  0  0
   -2.1571  -11.8779   18.4829 N   0  0  0  0  0  0  0  0  0  0  0  0
   -2.7814  -11.5280   19.5763 C   0  0  0  0  0  0  0  0  0  0  0  0
   -3.6669  -12.4995   19.9626 N   0  0  0  0  0  0  0  0  0  0  0  0
   -5.1524  -18.1113   15.1411 N   0  0  0  0  0  0  0  0  0  0  0  0
   -4.6775  -19.0850   14.1712 C   0  0  0  0  0  0  0  0  0  0  0  0
   -3.6995  -19.7700   14.1752 O   0  0  0  0  0  0  0  0  0  0  0  0
   -5.5326  -19.3274   12.9621 C   0  0  0  0  0  0  0  0  0  0  0  0
   -5.4849  -20.5729   12.3738 N   0  0  0  0  0  0  0  0  0  0  0  0
   -6.4463  -20.8032   11.4789 N   0  0  0  0  0  0  0  0  0  0  0  0
   -7.0233  -19.6186   11.3000 C   0  0  0  0  0  0  0  0  0  0  0  0
   -6.4397  -18.6469   12.1044 C   0  0  0  0  0  0  0  0  0  0  0  0
   -7.1680  -16.8805   12.1128 Br  0  0  0  0  0  0  0  0  0  0  0  0
   -3.0590  -19.2191   16.5094 H   0  0  0  0  0  0  0  0  0  0  0  0
   -3.2961  -18.3540   18.0217 H   0  0  0  0  0  0  0  0  0  0  0  0
   -4.5297  -19.4943   17.4488 H   0  0  0  0  0  0  0  0  0  0  0  0
   -3.7913  -16.9248   15.9487 H   0  0  0  0  0  0  0  0  0  0  0  0
   -6.1923  -16.2954   17.0292 H   0  0  0  0  0  0  0  0  0  0  0  0
   -5.5887  -17.3148   18.3281 H   0  0  0  0  0  0  0  0  0  0  0  0
   -3.5859  -15.3477   17.4619 H   0  0  0  0  0  0  0  0  0  0  0  0
   -2.2224  -13.6830   17.3597 H   0  0  0  0  0  0  0  0  0  0  0  0
   -2.6487  -10.6044   20.1243 H   0  0  0  0  0  0  0  0  0  0  0  0
   -4.3053  -12.4478   20.7451 H   0  0  0  0  0  0  0  0  0  0  0  0
   -5.9803  -17.6540   14.7730 H   0  0  0  0  0  0  0  0  0  0  0  0
   -4.8772  -21.3452   12.6542 H   0  0  0  0  0  0  0  0  0  0  0  0
   -7.8532  -19.5198   10.6101 H   0  0  0  0  0  0  0  0  0  0  0  0
  1  2  1  0
  2  3  1  0
  3  4  1  0
  4  5  1  0
  5  6  2  0
  5  7  1  0
  7  8  2  0
  8  9  1  0
  9 10  2  0
 10 11  1  0
  2 12  1  0
 12 13  1  0
 13 14  2  0
 13 15  1  0
 15 16  1  0
 16 17  1  0
 17 18  2  0
 18 19  1  0
 19 20  1  0
 11  7  1  0
 19 15  2  0
  1 21  1  0
  1 22  1  0
  1 23  1  0
  2 24  1  0
  3 25  1  0
  3 26  1  0
  4 27  1  0
  8 28  1  0
 10 29  1  0
 11 30  1  0
 12 31  1  0
 16 32  1  0
 18 33  1  0
M  END
>  <Energy>  (861) 
-28.174477162297979

>  <compound_id>  (861) 
10047

>  <target_id>  (861) 
1

>  <reference_id>  (861) 
112

>  <inspiration_ids>  (861) 
[112, 80]

>  <energy_score>  (861) 
-6.977227511605733

>  <distance_score>  (861) 
13.887550200371356

>  <path>  (861) 
/opt/xchem-fragalysis-2/maxwin/BulkDock/SCRATCH/511014/C10047-P112/C10047-P112.minimised.mol

>  <scratch_subdir>  (861) 
/opt/xchem-fragalysis-2/maxwin/BulkDock/SCRATCH/511014/C10047-P112

>  <fragmenstein_runtime>  (861) 
24.549198150634766

>  <fragmenstein_outcome>  (861) 
too moved

>  <fragmenstein_mode>  (861) 
expansion

>  <fragmenstein_error>  (861) 


$$$$
C10047-P80
     RDKit          3D

 33 34  0  0  0  0  0  0  0  0999 V2000
   -0.0152  -12.5212   12.0111 C   0  0  0  0  0  0  0  0  0  0  0  0
    0.4448  -12.7130   13.4705 C   0  0  0  0  0  0  0  0  0  0  0  0
    1.8552  -11.2016   13.4040 C   0  0  0  0  0  0  0  0  0  0  0  0
    3.7029  -10.5162   13.9314 N   0  0  0  0  0  0  0  0  0  0  0  0
    4.5227   -8.8421   13.6830 C   0  0  0  0  0  0  0  0  0  0  0  0
    3.9764   -7.9713   13.1098 O   0  0  0  0  0  0  0  0  0  0  0  0
    6.2443   -8.3004   14.0877 C   0  0  0  0  0  0  0  0  0  0  0  0
    6.9326   -7.4946   15.1285 C   0  0  0  0  0  0  0  0  0  0  0  0
    8.2768   -7.6692   15.0707 N   0  0  0  0  0  0  0  0  0  0  0  0
    8.3379   -8.8124   14.4952 C   0  0  0  0  0  0  0  0  0  0  0  0
    7.4716   -8.5972   13.4785 N   0  0  0  0  0  0  0  0  0  0  0  0
   -0.9654  -13.8322   14.1562 N   0  0  0  0  0  0  0  0  0  0  0  0
   -1.6486  -14.0944   15.9402 C   0  0  0  0  0  0  0  0  0  0  0  0
   -1.2766  -13.5281   16.9820 O   0  0  0  0  0  0  0  0  0  0  0  0
   -2.9408  -15.0329   16.2665 C   0  0  0  0  0  0  0  0  0  0  0  0
   -3.6416  -16.1463   15.6558 N   0  0  0  0  0  0  0  0  0  0  0  0
   -4.5517  -16.8260   16.4298 N   0  0  0  0  0  0  0  0  0  0  0  0
   -4.5287  -16.1597   17.5797 C   0  0  0  0  0  0  0  0  0  0  0  0
   -3.6097  -15.0703   17.5395 C   0  0  0  0  0  0  0  0  0  0  0  0
   -3.4977  -13.9247   19.0331 Br  0  0  0  0  0  0  0  0  0  0  0  0
   -0.5655  -11.5938   11.9026 H   0  0  0  0  0  0  0  0  0  0  0  0
    0.8227  -12.4072   11.3385 H   0  0  0  0  0  0  0  0  0  0  0  0
   -0.4906  -13.4311   11.6476 H   0  0  0  0  0  0  0  0  0  0  0  0
    0.9901  -13.6196   13.2356 H   0  0  0  0  0  0  0  0  0  0  0  0
    1.8027  -11.0510   12.2885 H   0  0  0  0  0  0  0  0  0  0  0  0
    1.5477  -11.8350   14.2700 H   0  0  0  0  0  0  0  0  0  0  0  0
    4.2998  -11.0959   14.5171 H   0  0  0  0  0  0  0  0  0  0  0  0
    6.5253   -6.7859   15.8536 H   0  0  0  0  0  0  0  0  0  0  0  0
    9.0384   -9.6305   14.6292 H   0  0  0  0  0  0  0  0  0  0  0  0
    7.6169   -8.8456   12.5241 H   0  0  0  0  0  0  0  0  0  0  0  0
   -1.3753  -14.4558   13.5502 H   0  0  0  0  0  0  0  0  0  0  0  0
   -3.3052  -16.6179   14.8407 H   0  0  0  0  0  0  0  0  0  0  0  0
   -5.1853  -16.4650   18.3839 H   0  0  0  0  0  0  0  0  0  0  0  0
  1  2  1  0
  2  3  1  0
  3  4  1  0
  4  5  1  0
  5  6  2  0
  5  7  1  0
  7  8  2  0
  8  9  1  0
  9 10  2  0
 10 11  1  0
  2 12  1  0
 12 13  1  0
 13 14  2  0
 13 15  1  0
 15 16  1  0
 16 17  1  0
 17 18  2  0
 18 19  1  0
 19 20  1  0
 11  7  1  0
 19 15  2  0
  1 21  1  0
  1 22  1  0
  1 23  1  0
  2 24  1  0
  3 25  1  0
  3 26  1  0
  4 27  1  0
  8 28  1  0
 10 29  1  0
 11 30  1  0
 12 31  1  0
 16 32  1  0
 18 33  1  0
M  END
>  <Energy>  (862) 
627.46815096351202

>  <compound_id>  (862) 
10047

>  <target_id>  (862) 
1

>  <reference_id>  (862) 
80

>  <inspiration_ids>  (862) 
[112, 80]

>  <energy_score>  (862) 
648.6654006142004

>  <distance_score>  (862) 
11.734990633943044

>  <path>  (862) 
/opt/xchem-fragalysis-2/maxwin/BulkDock/SCRATCH/511014/C10047-P80/C10047-P80.minimised.mol

>  <scratch_subdir>  (862) 
/opt/xchem-fragalysis-2/maxwin/BulkDock/SCRATCH/511014/C10047-P80

>  <fragmenstein_runtime>  (862) 
29.40510368347168

>  <fragmenstein_outcome>  (862) 
too moved

>  <fragmenstein_mode>  (862) 
expansion

>  <fragmenstein_error>  (862) 


$$$$
C10048-P112
     RDKit          3D

 39 40  0  0  0  0  0  0  0  0999 V2000
   -6.1139   -7.6461   11.3237 C   0  0  0  0  0  0  0  0  0  0  0  0
   -5.3190   -8.6363   12.1786 C   0  0  0  0  0  0  0  0  0  0  0  0
   -4.6843   -7.8819   13.3909 C   0  0  0  0  0  0  0  0  0  0  0  0
   -3.5960   -6.9148   13.1150 N   0  0  0  0  0  0  0  0  0  0  0  0
   -3.1470   -5.7631   13.8540 C   0  0  0  0  0  0  0  0  0  0  0  0
   -3.5901   -5.2476   14.8378 O   0  0  0  0  0  0  0  0  0  0  0  0
   -1.8724   -5.1702   13.3854 C   0  0  0  0  0  0  0  0  0  0  0  0
   -1.1086   -5.2046   12.2308 C   0  0  0  0  0  0  0  0  0  0  0  0
    0.0624   -4.4762   12.3519 N   0  0  0  0  0  0  0  0  0  0  0  0
    0.0176   -3.9440   13.5479 C   0  0  0  0  0  0  0  0  0  0  0  0
   -1.1232   -4.3147   14.1978 N   0  0  0  0  0  0  0  0  0  0  0  0
   -6.1798   -9.8110   12.5222 N   0  0  0  0  0  0  0  0  0  0  0  0
   -6.9066  -10.7348   11.6754 C   0  0  0  0  0  0  0  0  0  0  0  0
   -7.0658  -10.7432   10.4909 O   0  0  0  0  0  0  0  0  0  0  0  0
   -7.5534  -11.8558   12.3997 C   0  0  0  0  0  0  0  0  0  0  0  0
   -7.7389  -13.1726   11.9730 C   0  0  0  0  0  0  0  0  0  0  0  0
   -8.4854  -13.8468   12.9762 C   0  0  0  0  0  0  0  0  0  0  0  0
   -8.9272  -15.2874   12.9702 C   0  0  0  0  0  0  0  0  0  0  0  0
  -10.1199  -15.5723   13.8678 C   0  0  0  0  0  0  0  0  0  0  0  0
   -7.9060  -16.1095   13.3502 F   0  0  0  0  0  0  0  0  0  0  0  0
   -9.2620  -15.6821   11.7050 F   0  0  0  0  0  0  0  0  0  0  0  0
   -8.7786  -12.9955   13.9756 N   0  0  0  0  0  0  0  0  0  0  0  0
   -8.2455  -11.8187   13.5806 N   0  0  0  0  0  0  0  0  0  0  0  0
   -6.4849   -8.1202   10.4094 H   0  0  0  0  0  0  0  0  0  0  0  0
   -6.9815   -7.2630   11.8721 H   0  0  0  0  0  0  0  0  0  0  0  0
   -5.4940   -6.7951   11.0235 H   0  0  0  0  0  0  0  0  0  0  0  0
   -4.5149   -9.0418   11.5543 H   0  0  0  0  0  0  0  0  0  0  0  0
   -4.2615   -8.6073   14.0928 H   0  0  0  0  0  0  0  0  0  0  0  0
   -5.4595   -7.3453   13.9509 H   0  0  0  0  0  0  0  0  0  0  0  0
   -2.9297   -7.1157   12.3807 H   0  0  0  0  0  0  0  0  0  0  0  0
   -1.3327   -5.7088   11.3012 H   0  0  0  0  0  0  0  0  0  0  0  0
    0.7579   -3.2872   13.9856 H   0  0  0  0  0  0  0  0  0  0  0  0
   -1.4191   -4.0101   15.1157 H   0  0  0  0  0  0  0  0  0  0  0  0
   -6.1861  -10.1589   13.4717 H   0  0  0  0  0  0  0  0  0  0  0  0
   -7.3760  -13.5941   11.0437 H   0  0  0  0  0  0  0  0  0  0  0  0
  -10.9868  -14.9679   13.5813 H   0  0  0  0  0  0  0  0  0  0  0  0
   -9.8848  -15.3812   14.9200 H   0  0  0  0  0  0  0  0  0  0  0  0
  -10.4116  -16.6228   13.7859 H   0  0  0  0  0  0  0  0  0  0  0  0
   -8.4119  -11.0080   14.1658 H   0  0  0  0  0  0  0  0  0  0  0  0
  1  2  1  0
  2  3  1  0
  3  4  1  0
  4  5  1  0
  5  6  2  0
  5  7  1  0
  7  8  2  0
  8  9  1  0
  9 10  2  0
 10 11  1  0
  2 12  1  0
 12 13  1  0
 13 14  2  0
 13 15  1  0
 15 16  2  0
 16 17  1  0
 17 18  1  0
 18 19  1  0
 18 20  1  0
 18 21  1  0
 17 22  2  0
 22 23  1  0
 11  7  1  0
 23 15  1  0
  1 24  1  0
  1 25  1  0
  1 26  1  0
  2 27  1  0
  3 28  1  0
  3 29  1  0
  4 30  1  0
  8 31  1  0
 10 32  1  0
 11 33  1  0
 12 34  1  0
 16 35  1  0
 19 36  1  0
 19 37  1  0
 19 38  1  0
 23 39  1  0
M  END
>  <Energy>  (863) 
13.714462286944153

>  <compound_id>  (863) 
10048

>  <target_id>  (863) 
1

>  <reference_id>  (863) 
112

>  <inspiration_ids>  (863) 
[112, 80]

>  <energy_score>  (863) 
-14.81538870350385

>  <distance_score>  (863) 
13.9338308767978

>  <path>  (863) 
/opt/xchem-fragalysis-2/maxwin/BulkDock/SCRATCH/511014/C10048-P112/C10048-P112.minimised.mol

>  <scratch_subdir>  (863) 
/opt/xchem-fragalysis-2/maxwin/BulkDock/SCRATCH/511014/C10048-P112

>  <fragmenstein_runtime>  (863) 
19.729920864105225

>  <fragmenstein_outcome>  (863) 
too moved

>  <fragmenstein_mode>  (863) 
expansion

>  <fragmenstein_error>  (863) 


$$$$
C10048-P80
     RDKit          3D

 39 40  0  0  0  0  0  0  0  0999 V2000
   -0.2023  -14.8620   12.4060 C   0  0  0  0  0  0  0  0  0  0  0  0
   -0.6836  -13.9732   13.7915 C   0  0  0  0  0  0  0  0  0  0  0  0
    0.2541  -12.5401   13.0650 C   0  0  0  0  0  0  0  0  0  0  0  0
    0.5356  -11.3119   12.0123 N   0  0  0  0  0  0  0  0  0  0  0  0
    1.8198  -10.9991   11.0729 C   0  0  0  0  0  0  0  0  0  0  0  0
    2.8038  -11.6658   10.8975 O   0  0  0  0  0  0  0  0  0  0  0  0
    1.9564   -9.6388   10.2857 C   0  0  0  0  0  0  0  0  0  0  0  0
    2.8737   -9.4878    9.2248 C   0  0  0  0  0  0  0  0  0  0  0  0
    3.1429   -8.1817    8.8916 N   0  0  0  0  0  0  0  0  0  0  0  0
    2.4441   -7.4850    9.7437 C   0  0  0  0  0  0  0  0  0  0  0  0
    1.6977   -8.2998   10.5439 N   0  0  0  0  0  0  0  0  0  0  0  0
   -1.8248  -14.5165   15.3590 N   0  0  0  0  0  0  0  0  0  0  0  0
   -3.0416  -15.6359   15.4839 C   0  0  0  0  0  0  0  0  0  0  0  0
   -3.3917  -16.3858   14.6389 O   0  0  0  0  0  0  0  0  0  0  0  0
   -3.9541  -15.9276   16.9243 C   0  0  0  0  0  0  0  0  0  0  0  0
   -5.4509  -16.1687   16.9308 C   0  0  0  0  0  0  0  0  0  0  0  0
   -5.4843  -16.8241   15.6882 C   0  0  0  0  0  0  0  0  0  0  0  0
   -6.4230  -16.8238   14.3909 C   0  0  0  0  0  0  0  0  0  0  0  0
   -7.8795  -16.5010   14.7351 C   0  0  0  0  0  0  0  0  0  0  0  0
   -6.1997  -17.9831   13.7553 F   0  0  0  0  0  0  0  0  0  0  0  0
   -6.1776  -15.9860   13.3176 F   0  0  0  0  0  0  0  0  0  0  0  0
   -4.6032  -17.8377   16.0080 N   0  0  0  0  0  0  0  0  0  0  0  0
   -4.1493  -17.3738   17.1730 N   0  0  0  0  0  0  0  0  0  0  0  0
   -0.7967  -14.5863   11.5280 H   0  0  0  0  0  0  0  0  0  0  0  0
   -0.0186  -15.9281   12.3586 H   0  0  0  0  0  0  0  0  0  0  0  0
    0.8318  -14.6693   12.2029 H   0  0  0  0  0  0  0  0  0  0  0  0
   -1.1898  -13.0714   13.8059 H   0  0  0  0  0  0  0  0  0  0  0  0
    0.9829  -12.3927   13.8424 H   0  0  0  0  0  0  0  0  0  0  0  0
    0.5537  -13.0689   12.1902 H   0  0  0  0  0  0  0  0  0  0  0  0
   -0.1479  -10.6066   11.8812 H   0  0  0  0  0  0  0  0  0  0  0  0
    3.4093  -10.2956    8.7383 H   0  0  0  0  0  0  0  0  0  0  0  0
    2.4396   -6.4078    9.8377 H   0  0  0  0  0  0  0  0  0  0  0  0
    1.2382   -7.9815   11.3794 H   0  0  0  0  0  0  0  0  0  0  0  0
   -1.6887  -14.0719   16.2597 H   0  0  0  0  0  0  0  0  0  0  0  0
   -6.2002  -15.4807   17.3113 H   0  0  0  0  0  0  0  0  0  0  0  0
   -8.0000  -15.4290   14.9295 H   0  0  0  0  0  0  0  0  0  0  0  0
   -8.2413  -17.0003   15.6306 H   0  0  0  0  0  0  0  0  0  0  0  0
   -8.5354  -16.7290   13.8906 H   0  0  0  0  0  0  0  0  0  0  0  0
   -3.6098  -18.0004   17.7592 H   0  0  0  0  0  0  0  0  0  0  0  0
  1  2  1  0
  2  3  1  0
  3  4  1  0
  4  5  1  0
  5  6  2  0
  5  7  1  0
  7  8  2  0
  8  9  1  0
  9 10  2  0
 10 11  1  0
  2 12  1  0
 12 13  1  0
 13 14  2  0
 13 15  1  0
 15 16  2  0
 16 17  1  0
 17 18  1  0
 18 19  1  0
 18 20  1  0
 18 21  1  0
 17 22  2  0
 22 23  1  0
 11  7  1  0
 23 15  1  0
  1 24  1  0
  1 25  1  0
  1 26  1  0
  2 27  1  0
  3 28  1  0
  3 29  1  0
  4 30  1  0
  8 31  1  0
 10 32  1  0
 11 33  1  0
 12 34  1  0
 16 35  1  0
 19 36  1  0
 19 37  1  0
 19 38  1  0
 23 39  1  0
M  END
>  <Energy>  (864) 
537.65080438194821

>  <compound_id>  (864) 
10048

>  <target_id>  (864) 
1

>  <reference_id>  (864) 
80

>  <inspiration_ids>  (864) 
[112, 80]

>  <energy_score>  (864) 
509.1209533914947

>  <distance_score>  (864) 
12.568957014566772

>  <path>  (864) 
/opt/xchem-fragalysis-2/maxwin/BulkDock/SCRATCH/511014/C10048-P80/C10048-P80.minimised.mol

>  <scratch_subdir>  (864) 
/opt/xchem-fragalysis-2/maxwin/BulkDock/SCRATCH/511014/C10048-P80

>  <fragmenstein_runtime>  (864) 
17.35537052154541

>  <fragmenstein_outcome>  (864) 
too moved

>  <fragmenstein_mode>  (864) 
expansion

>  <fragmenstein_error>  (864) 


$$$$
C10049-P112
     RDKit          3D

 37 38  0  0  0  0  0  0  0  0999 V2000
   -3.6246  -22.2992   17.6488 C   0  0  0  0  0  0  0  0  0  0  0  0
   -2.8016  -21.2748   17.9071 C   0  0  0  0  0  0  0  0  0  0  0  0
   -3.1758  -20.0977   18.5652 N   0  0  0  0  0  0  0  0  0  0  0  0
   -4.4808  -19.8631   18.9329 N   0  0  0  0  0  0  0  0  0  0  0  0
   -4.5193  -18.6145   19.3592 C   0  0  0  0  0  0  0  0  0  0  0  0
   -3.2479  -18.0433   19.4178 C   0  0  0  0  0  0  0  0  0  0  0  0
   -2.3470  -19.0138   18.9914 C   0  0  0  0  0  0  0  0  0  0  0  0
   -0.8558  -18.9252   18.9226 C   0  0  0  0  0  0  0  0  0  0  0  0
   -0.2949  -19.5426   18.0667 O   0  0  0  0  0  0  0  0  0  0  0  0
   -0.3314  -18.0368   19.9430 N   0  0  0  0  0  0  0  0  0  0  0  0
    1.0763  -17.6879   20.3129 C   0  0  0  0  0  0  0  0  0  0  0  0
    1.7467  -18.8867   20.9772 C   0  0  0  0  0  0  0  0  0  0  0  0
    1.9555  -17.1435   19.1499 C   0  0  0  0  0  0  0  0  0  0  0  0
    3.1459  -16.3171   19.4175 N   0  0  0  0  0  0  0  0  0  0  0  0
    3.5229  -15.5522   20.5728 C   0  0  0  0  0  0  0  0  0  0  0  0
    3.0041  -15.4538   21.6451 O   0  0  0  0  0  0  0  0  0  0  0  0
    4.6956  -14.6824   20.3273 C   0  0  0  0  0  0  0  0  0  0  0  0
    5.7427  -14.6808   19.4195 C   0  0  0  0  0  0  0  0  0  0  0  0
    6.5788  -13.5904   19.5815 N   0  0  0  0  0  0  0  0  0  0  0  0
    6.0898  -12.9338   20.6028 C   0  0  0  0  0  0  0  0  0  0  0  0
    4.9808  -13.5596   21.0980 N   0  0  0  0  0  0  0  0  0  0  0  0
   -3.2547  -23.1822   17.1381 H   0  0  0  0  0  0  0  0  0  0  0  0
   -4.6643  -22.2812   17.9551 H   0  0  0  0  0  0  0  0  0  0  0  0
   -1.7637  -21.3500   17.6097 H   0  0  0  0  0  0  0  0  0  0  0  0
   -5.4728  -18.1785   19.6289 H   0  0  0  0  0  0  0  0  0  0  0  0
   -3.0120  -17.0399   19.7440 H   0  0  0  0  0  0  0  0  0  0  0  0
   -1.0872  -17.7515   20.5530 H   0  0  0  0  0  0  0  0  0  0  0  0
    0.9610  -16.8968   21.0612 H   0  0  0  0  0  0  0  0  0  0  0  0
    1.8401  -19.7261   20.2796 H   0  0  0  0  0  0  0  0  0  0  0  0
    1.1578  -19.2347   21.8328 H   0  0  0  0  0  0  0  0  0  0  0  0
    2.7474  -18.6288   21.3383 H   0  0  0  0  0  0  0  0  0  0  0  0
    2.2995  -17.9725   18.5212 H   0  0  0  0  0  0  0  0  0  0  0  0
    1.3298  -16.5116   18.5182 H   0  0  0  0  0  0  0  0  0  0  0  0
    3.7747  -16.0943   18.6545 H   0  0  0  0  0  0  0  0  0  0  0  0
    5.9454  -15.4076   18.6419 H   0  0  0  0  0  0  0  0  0  0  0  0
    6.4953  -12.0287   21.0341 H   0  0  0  0  0  0  0  0  0  0  0  0
    4.4368  -13.2786   21.9025 H   0  0  0  0  0  0  0  0  0  0  0  0
  1  2  2  0
  2  3  1  0
  3  4  1  0
  4  5  2  0
  5  6  1  0
  6  7  2  0
  7  8  1  0
  8  9  2  0
  8 10  1  0
 10 11  1  0
 11 12  1  0
 11 13  1  0
 13 14  1  0
 14 15  1  0
 15 16  2  0
 15 17  1  0
 17 18  2  0
 18 19  1  0
 19 20  2  0
 20 21  1  0
  7  3  1  0
 21 17  1  0
  1 22  1  0
  1 23  1  0
  2 24  1  0
  5 25  1  0
  6 26  1  0
 10 27  1  0
 11 28  1  0
 12 29  1  0
 12 30  1  0
 12 31  1  0
 13 32  1  0
 13 33  1  0
 14 34  1  0
 18 35  1  0
 20 36  1  0
 21 37  1  0
M  END
>  <Energy>  (865) 
-40.107450727364089

>  <compound_id>  (865) 
10049

>  <target_id>  (865) 
1

>  <reference_id>  (865) 
112

>  <inspiration_ids>  (865) 
[112, 80]

>  <energy_score>  (865) 
-28.66469343564799

>  <distance_score>  (865) 
13.324195934575679

>  <path>  (865) 
/opt/xchem-fragalysis-2/maxwin/BulkDock/SCRATCH/511014/C10049-P112/C10049-P112.minimised.mol

>  <scratch_subdir>  (865) 
/opt/xchem-fragalysis-2/maxwin/BulkDock/SCRATCH/511014/C10049-P112

>  <fragmenstein_runtime>  (865) 
20.270646810531616

>  <fragmenstein_outcome>  (865) 
too moved

>  <fragmenstein_mode>  (865) 
expansion

>  <fragmenstein_error>  (865) 


$$$$
C10049-P80
     RDKit          3D

 37 38  0  0  0  0  0  0  0  0999 V2000
   -6.3988  -16.9295   17.7281 C   0  0  0  0  0  0  0  0  0  0  0  0
   -5.2577  -16.6070   17.0786 C   0  0  0  0  0  0  0  0  0  0  0  0
   -4.2145  -15.8865   17.7024 N   0  0  0  0  0  0  0  0  0  0  0  0
   -4.1509  -15.8236   19.0716 N   0  0  0  0  0  0  0  0  0  0  0  0
   -3.4936  -14.7095   19.3327 C   0  0  0  0  0  0  0  0  0  0  0  0
   -2.8915  -14.1671   18.1974 C   0  0  0  0  0  0  0  0  0  0  0  0
   -3.1503  -15.0386   17.1554 C   0  0  0  0  0  0  0  0  0  0  0  0
   -2.5394  -15.0554   15.6974 C   0  0  0  0  0  0  0  0  0  0  0  0
   -3.0498  -15.7727   14.8838 O   0  0  0  0  0  0  0  0  0  0  0  0
   -1.3625  -13.9787   15.5578 N   0  0  0  0  0  0  0  0  0  0  0  0
   -0.2715  -13.2097   13.8882 C   0  0  0  0  0  0  0  0  0  0  0  0
   -0.1757  -13.4800   12.3311 C   0  0  0  0  0  0  0  0  0  0  0  0
    1.4145  -11.8104   14.2404 C   0  0  0  0  0  0  0  0  0  0  0  0
    2.8569  -10.1222   14.5522 N   0  0  0  0  0  0  0  0  0  0  0  0
    2.7032   -8.3517   15.6475 C   0  0  0  0  0  0  0  0  0  0  0  0
    1.6389   -8.1183   16.4232 O   0  0  0  0  0  0  0  0  0  0  0  0
    3.6710   -6.8920   15.6576 C   0  0  0  0  0  0  0  0  0  0  0  0
    3.9428   -5.7692   14.8669 C   0  0  0  0  0  0  0  0  0  0  0  0
    4.0483   -4.5907   15.5704 N   0  0  0  0  0  0  0  0  0  0  0  0
    3.6760   -4.8976   16.7771 C   0  0  0  0  0  0  0  0  0  0  0  0
    3.5563   -6.2372   16.9215 N   0  0  0  0  0  0  0  0  0  0  0  0
   -6.5142  -16.7225   18.7896 H   0  0  0  0  0  0  0  0  0  0  0  0
   -7.2797  -17.3136   17.2353 H   0  0  0  0  0  0  0  0  0  0  0  0
   -5.1377  -16.7440   16.0112 H   0  0  0  0  0  0  0  0  0  0  0  0
   -3.4517  -14.3500   20.3532 H   0  0  0  0  0  0  0  0  0  0  0  0
   -2.2870  -13.2751   18.1571 H   0  0  0  0  0  0  0  0  0  0  0  0
   -1.1279  -13.6148   16.4616 H   0  0  0  0  0  0  0  0  0  0  0  0
    0.1391  -14.1853   13.8109 H   0  0  0  0  0  0  0  0  0  0  0  0
    0.7895  -13.9023   12.0929 H   0  0  0  0  0  0  0  0  0  0  0  0
   -0.2063  -12.5269   11.7966 H   0  0  0  0  0  0  0  0  0  0  0  0
   -0.8082  -14.2340   11.8596 H   0  0  0  0  0  0  0  0  0  0  0  0
    1.7511  -12.5740   14.9695 H   0  0  0  0  0  0  0  0  0  0  0  0
    1.3382  -11.5591   13.1774 H   0  0  0  0  0  0  0  0  0  0  0  0
    3.6878  -10.0754   13.9630 H   0  0  0  0  0  0  0  0  0  0  0  0
    3.9814   -5.6631   13.7919 H   0  0  0  0  0  0  0  0  0  0  0  0
    3.4641   -4.2028   17.5785 H   0  0  0  0  0  0  0  0  0  0  0  0
    3.1175   -6.6845   17.7141 H   0  0  0  0  0  0  0  0  0  0  0  0
  1  2  2  0
  2  3  1  0
  3  4  1  0
  4  5  2  0
  5  6  1  0
  6  7  2  0
  7  8  1  0
  8  9  2  0
  8 10  1  0
 10 11  1  0
 11 12  1  0
 11 13  1  0
 13 14  1  0
 14 15  1  0
 15 16  2  0
 15 17  1  0
 17 18  2  0
 18 19  1  0
 19 20  2  0
 20 21  1  0
  7  3  1  0
 21 17  1  0
  1 22  1  0
  1 23  1  0
  2 24  1  0
  5 25  1  0
  6 26  1  0
 10 27  1  0
 11 28  1  0
 12 29  1  0
 12 30  1  0
 12 31  1  0
 13 32  1  0
 13 33  1  0
 14 34  1  0
 18 35  1  0
 20 36  1  0
 21 37  1  0
M  END
>  <Energy>  (866) 
850.94653612589877

>  <compound_id>  (866) 
10049

>  <target_id>  (866) 
1

>  <reference_id>  (866) 
80

>  <inspiration_ids>  (866) 
[112, 80]

>  <energy_score>  (866) 
862.3892934176112

>  <distance_score>  (866) 
12.184725822597986

>  <path>  (866) 
/opt/xchem-fragalysis-2/maxwin/BulkDock/SCRATCH/511014/C10049-P80/C10049-P80.minimised.mol

>  <scratch_subdir>  (866) 
/opt/xchem-fragalysis-2/maxwin/BulkDock/SCRATCH/511014/C10049-P80

>  <fragmenstein_runtime>  (866) 
11.875084161758423

>  <fragmenstein_outcome>  (866) 
too moved

>  <fragmenstein_mode>  (866) 
expansion

>  <fragmenstein_error>  (866) 


$$$$
C10050-P112
     RDKit          3D

 34 35  0  0  0  0  0  0  0  0999 V2000
    2.0571  -23.0255   12.1234 C   0  0  0  0  0  0  0  0  0  0  0  0
    1.1844  -22.5734   13.2952 C   0  0  0  0  0  0  0  0  0  0  0  0
    2.0099  -22.5002   14.6080 C   0  0  0  0  0  0  0  0  0  0  0  0
    3.0321  -21.4548   14.7102 N   0  0  0  0  0  0  0  0  0  0  0  0
    3.1835  -20.2166   14.0071 C   0  0  0  0  0  0  0  0  0  0  0  0
    2.5590  -19.7551   13.1007 O   0  0  0  0  0  0  0  0  0  0  0  0
    4.2836  -19.3941   14.5368 C   0  0  0  0  0  0  0  0  0  0  0  0
    5.4264  -19.6315   15.2817 C   0  0  0  0  0  0  0  0  0  0  0  0
    6.1418  -18.4846   15.5371 N   0  0  0  0  0  0  0  0  0  0  0  0
    5.4578  -17.5392   14.9435 C   0  0  0  0  0  0  0  0  0  0  0  0
    4.3650  -18.0320   14.2963 N   0  0  0  0  0  0  0  0  0  0  0  0
    0.0141  -23.4640   13.3888 N   0  0  0  0  0  0  0  0  0  0  0  0
   -1.2009  -23.5049   12.6255 C   0  0  0  0  0  0  0  0  0  0  0  0
   -1.6078  -22.7764   11.7701 O   0  0  0  0  0  0  0  0  0  0  0  0
   -2.0765  -24.6558   12.9008 C   0  0  0  0  0  0  0  0  0  0  0  0
   -3.3078  -24.7252   12.2662 N   0  0  0  0  0  0  0  0  0  0  0  0
   -3.9932  -25.8707   12.4700 N   0  0  0  0  0  0  0  0  0  0  0  0
   -3.2313  -26.5191   13.3520 C   0  0  0  0  0  0  0  0  0  0  0  0
   -2.0541  -25.8075   13.6701 C   0  0  0  0  0  0  0  0  0  0  0  0
   -1.0383  -26.2433   14.5637 C   0  0  0  0  0  0  0  0  0  0  0  0
   -0.1581  -26.5587   15.2510 N   0  0  0  0  0  0  0  0  0  0  0  0
    2.9151  -22.3625   11.9797 H   0  0  0  0  0  0  0  0  0  0  0  0
    2.4341  -24.0418   12.2840 H   0  0  0  0  0  0  0  0  0  0  0  0
    1.4821  -23.0337   11.1907 H   0  0  0  0  0  0  0  0  0  0  0  0
    0.7785  -21.5861   13.0519 H   0  0  0  0  0  0  0  0  0  0  0  0
    2.5209  -23.4541   14.7838 H   0  0  0  0  0  0  0  0  0  0  0  0
    1.3388  -22.3542   15.4605 H   0  0  0  0  0  0  0  0  0  0  0  0
    3.6879  -21.4795   15.4777 H   0  0  0  0  0  0  0  0  0  0  0  0
    5.7774  -20.5857   15.6508 H   0  0  0  0  0  0  0  0  0  0  0  0
    5.7053  -16.4969   14.9549 H   0  0  0  0  0  0  0  0  0  0  0  0
    3.6648  -17.5265   13.7579 H   0  0  0  0  0  0  0  0  0  0  0  0
    0.0662  -24.2866   13.9670 H   0  0  0  0  0  0  0  0  0  0  0  0
   -3.7097  -23.9958   11.6825 H   0  0  0  0  0  0  0  0  0  0  0  0
   -3.5630  -27.4799   13.7261 H   0  0  0  0  0  0  0  0  0  0  0  0
  1  2  1  0
  2  3  1  0
  3  4  1  0
  4  5  1  0
  5  6  2  0
  5  7  1  0
  7  8  2  0
  8  9  1  0
  9 10  2  0
 10 11  1  0
  2 12  1  0
 12 13  1  0
 13 14  2  0
 13 15  1  0
 15 16  1  0
 16 17  1  0
 17 18  2  0
 18 19  1  0
 19 20  1  0
 20 21  3  0
 11  7  1  0
 19 15  2  0
  1 22  1  0
  1 23  1  0
  1 24  1  0
  2 25  1  0
  3 26  1  0
  3 27  1  0
  4 28  1  0
  8 29  1  0
 10 30  1  0
 11 31  1  0
 12 32  1  0
 16 33  1  0
 18 34  1  0
M  END
>  <Energy>  (867) 
-50.540488229247039

>  <compound_id>  (867) 
10050

>  <target_id>  (867) 
1

>  <reference_id>  (867) 
112

>  <inspiration_ids>  (867) 
[112, 80]

>  <energy_score>  (867) 
-13.412961346921062

>  <distance_score>  (867) 
13.70486523928301

>  <path>  (867) 
/opt/xchem-fragalysis-2/maxwin/BulkDock/SCRATCH/511014/C10050-P112/C10050-P112.minimised.mol

>  <scratch_subdir>  (867) 
/opt/xchem-fragalysis-2/maxwin/BulkDock/SCRATCH/511014/C10050-P112

>  <fragmenstein_runtime>  (867) 
15.399461030960083

>  <fragmenstein_outcome>  (867) 
too moved

>  <fragmenstein_mode>  (867) 
expansion

>  <fragmenstein_error>  (867) 


$$$$
C10050-P80
     RDKit          3D

 34 35  0  0  0  0  0  0  0  0999 V2000
    6.3356  -17.3911   14.7161 C   0  0  0  0  0  0  0  0  0  0  0  0
    5.3602  -15.9852   14.0215 C   0  0  0  0  0  0  0  0  0  0  0  0
    6.2626  -14.0345   13.7219 C   0  0  0  0  0  0  0  0  0  0  0  0
    7.7079  -14.1290   14.9215 N   0  0  0  0  0  0  0  0  0  0  0  0
    8.9425  -12.9131   15.4011 C   0  0  0  0  0  0  0  0  0  0  0  0
    9.0456  -11.7241   15.0961 O   0  0  0  0  0  0  0  0  0  0  0  0
   10.1171  -13.3316   16.2013 C   0  0  0  0  0  0  0  0  0  0  0  0
   11.1204  -12.4340   16.5794 C   0  0  0  0  0  0  0  0  0  0  0  0
   12.0684  -13.0263   17.3551 N   0  0  0  0  0  0  0  0  0  0  0  0
   11.6973  -14.2806   17.4148 C   0  0  0  0  0  0  0  0  0  0  0  0
   10.5392  -14.5176   16.7208 N   0  0  0  0  0  0  0  0  0  0  0  0
    4.5060  -16.9615   13.0414 N   0  0  0  0  0  0  0  0  0  0  0  0
    4.0673  -18.3306   13.2128 C   0  0  0  0  0  0  0  0  0  0  0  0
    4.2916  -19.1199   14.0840 O   0  0  0  0  0  0  0  0  0  0  0  0
    3.1335  -18.7230   12.1877 C   0  0  0  0  0  0  0  0  0  0  0  0
    1.9202  -19.1758   12.6279 N   0  0  0  0  0  0  0  0  0  0  0  0
    0.9861  -19.2740   11.6736 N   0  0  0  0  0  0  0  0  0  0  0  0
    1.6656  -19.0186   10.5508 C   0  0  0  0  0  0  0  0  0  0  0  0
    3.0039  -18.6611   10.8202 C   0  0  0  0  0  0  0  0  0  0  0  0
    4.0110  -18.2387    9.9107 C   0  0  0  0  0  0  0  0  0  0  0  0
    4.8719  -17.8370    9.2442 N   0  0  0  0  0  0  0  0  0  0  0  0
    6.8335  -17.9803   13.9375 H   0  0  0  0  0  0  0  0  0  0  0  0
    7.0332  -17.0800   15.5027 H   0  0  0  0  0  0  0  0  0  0  0  0
    5.6096  -18.0173   15.1891 H   0  0  0  0  0  0  0  0  0  0  0  0
    5.0680  -16.0657   15.1204 H   0  0  0  0  0  0  0  0  0  0  0  0
    6.5728  -13.9060   12.6736 H   0  0  0  0  0  0  0  0  0  0  0  0
    5.7454  -13.0962   13.9716 H   0  0  0  0  0  0  0  0  0  0  0  0
    7.9565  -15.0477   15.2793 H   0  0  0  0  0  0  0  0  0  0  0  0
   11.1752  -11.3788   16.3315 H   0  0  0  0  0  0  0  0  0  0  0  0
   12.2213  -15.0665   17.9424 H   0  0  0  0  0  0  0  0  0  0  0  0
   10.0727  -15.4091   16.6474 H   0  0  0  0  0  0  0  0  0  0  0  0
    4.0625  -16.5787   12.2425 H   0  0  0  0  0  0  0  0  0  0  0  0
    1.6625  -19.3004   13.6051 H   0  0  0  0  0  0  0  0  0  0  0  0
    1.1493  -19.0691    9.5982 H   0  0  0  0  0  0  0  0  0  0  0  0
  1  2  1  0
  2  3  1  0
  3  4  1  0
  4  5  1  0
  5  6  2  0
  5  7  1  0
  7  8  2  0
  8  9  1  0
  9 10  2  0
 10 11  1  0
  2 12  1  0
 12 13  1  0
 13 14  2  0
 13 15  1  0
 15 16  1  0
 16 17  1  0
 17 18  2  0
 18 19  1  0
 19 20  1  0
 20 21  3  0
 11  7  1  0
 19 15  2  0
  1 22  1  0
  1 23  1  0
  1 24  1  0
  2 25  1  0
  3 26  1  0
  3 27  1  0
  4 28  1  0
  8 29  1  0
 10 30  1  0
 11 31  1  0
 12 32  1  0
 16 33  1  0
 18 34  1  0
M  END
>  <Energy>  (868) 
233.48617021410411

>  <compound_id>  (868) 
10050

>  <target_id>  (868) 
1

>  <reference_id>  (868) 
80

>  <inspiration_ids>  (868) 
[112, 80]

>  <energy_score>  (868) 
270.613697096436

>  <distance_score>  (868) 
14.256261870810697

>  <path>  (868) 
/opt/xchem-fragalysis-2/maxwin/BulkDock/SCRATCH/511014/C10050-P80/C10050-P80.minimised.mol

>  <scratch_subdir>  (868) 
/opt/xchem-fragalysis-2/maxwin/BulkDock/SCRATCH/511014/C10050-P80

>  <fragmenstein_runtime>  (868) 
17.10285782814026

>  <fragmenstein_outcome>  (868) 
too moved

>  <fragmenstein_mode>  (868) 
expansion

>  <fragmenstein_error>  (868) 


$$$$
C10051-P112
     RDKit          3D

 43 44  0  0  0  0  0  0  0  0999 V2000
   -5.4119  -20.8223   11.5609 C   0  0  0  0  0  0  0  0  0  0  0  0
   -5.5328  -19.7463   10.6397 O   0  0  0  0  0  0  0  0  0  0  0  0
   -4.3533  -19.6085    9.8146 C   0  0  0  0  0  0  0  0  0  0  0  0
   -4.1711  -18.1404    9.3702 C   0  0  0  0  0  0  0  0  0  0  0  0
   -2.7789  -17.4658    9.1237 N   0  0  0  0  0  0  0  0  0  0  0  0
   -2.6893  -17.2367    7.7616 N   0  0  0  0  0  0  0  0  0  0  0  0
   -3.5257  -16.1977    7.7719 C   0  0  0  0  0  0  0  0  0  0  0  0
   -3.3800  -15.5350    9.0477 C   0  0  0  0  0  0  0  0  0  0  0  0
   -2.1165  -16.0013    9.6764 C   0  0  0  0  0  0  0  0  0  0  0  0
   -1.4821  -14.9938   11.1095 C   0  0  0  0  0  0  0  0  0  0  0  0
   -2.3746  -14.4854   11.6106 O   0  0  0  0  0  0  0  0  0  0  0  0
    0.2081  -14.4691   11.8417 N   0  0  0  0  0  0  0  0  0  0  0  0
    0.7155  -13.0886   13.2280 C   0  0  0  0  0  0  0  0  0  0  0  0
    0.2512  -11.9075   12.2344 C   0  0  0  0  0  0  0  0  0  0  0  0
    1.8506  -12.4524   15.0293 C   0  0  0  0  0  0  0  0  0  0  0  0
    2.9681  -11.2415   16.4275 N   0  0  0  0  0  0  0  0  0  0  0  0
    2.4567   -9.6708   17.5281 C   0  0  0  0  0  0  0  0  0  0  0  0
    1.2941   -9.3168   17.5327 O   0  0  0  0  0  0  0  0  0  0  0  0
    3.3703   -8.5075   18.4378 C   0  0  0  0  0  0  0  0  0  0  0  0
    4.6161   -8.0771   19.0231 C   0  0  0  0  0  0  0  0  0  0  0  0
    4.6287   -6.7624   19.4075 N   0  0  0  0  0  0  0  0  0  0  0  0
    3.4112   -6.3467   19.1864 C   0  0  0  0  0  0  0  0  0  0  0  0
    2.6200   -7.3440   18.7005 N   0  0  0  0  0  0  0  0  0  0  0  0
   -5.1773  -21.7552   11.0393 H   0  0  0  0  0  0  0  0  0  0  0  0
   -6.3525  -20.9237   12.1051 H   0  0  0  0  0  0  0  0  0  0  0  0
   -4.6019  -20.5879   12.2546 H   0  0  0  0  0  0  0  0  0  0  0  0
   -3.5230  -20.0379   10.3359 H   0  0  0  0  0  0  0  0  0  0  0  0
   -4.4571  -20.2409    8.9282 H   0  0  0  0  0  0  0  0  0  0  0  0
   -4.8296  -17.4070    9.8376 H   0  0  0  0  0  0  0  0  0  0  0  0
   -4.6221  -18.1936    8.3634 H   0  0  0  0  0  0  0  0  0  0  0  0
   -4.1348  -15.9468    6.9123 H   0  0  0  0  0  0  0  0  0  0  0  0
   -3.8928  -14.6297    9.2911 H   0  0  0  0  0  0  0  0  0  0  0  0
    0.9295  -15.0254   11.4023 H   0  0  0  0  0  0  0  0  0  0  0  0
   -0.3227  -13.2768   13.5061 H   0  0  0  0  0  0  0  0  0  0  0  0
   -0.6141  -11.3700   12.6059 H   0  0  0  0  0  0  0  0  0  0  0  0
   -0.1616  -12.3457   11.3454 H   0  0  0  0  0  0  0  0  0  0  0  0
    0.9892  -11.1915   11.8719 H   0  0  0  0  0  0  0  0  0  0  0  0
    1.3573  -11.7351   14.3723 H   0  0  0  0  0  0  0  0  0  0  0  0
    1.5137  -13.1473   15.8352 H   0  0  0  0  0  0  0  0  0  0  0  0
    3.9199  -11.4526   16.5916 H   0  0  0  0  0  0  0  0  0  0  0  0
    5.5522   -8.6260   19.0922 H   0  0  0  0  0  0  0  0  0  0  0  0
    3.0328   -5.3507   19.3765 H   0  0  0  0  0  0  0  0  0  0  0  0
    1.6377   -7.2770   18.4626 H   0  0  0  0  0  0  0  0  0  0  0  0
  1  2  1  0
  2  3  1  0
  3  4  1  0
  4  5  1  0
  5  6  1  0
  6  7  2  0
  7  8  1  0
  8  9  2  0
  9 10  1  0
 10 11  2  0
 10 12  1  0
 12 13  1  0
 13 14  1  0
 13 15  1  0
 15 16  1  0
 16 17  1  0
 17 18  2  0
 17 19  1  0
 19 20  2  0
 20 21  1  0
 21 22  2  0
 22 23  1  0
  9  5  1  0
 23 19  1  0
  1 24  1  0
  1 25  1  0
  1 26  1  0
  3 27  1  0
  3 28  1  0
  4 29  1  0
  4 30  1  0
  7 31  1  0
  8 32  1  0
 12 33  1  0
 13 34  1  0
 14 35  1  0
 14 36  1  0
 14 37  1  0
 15 38  1  0
 15 39  1  0
 16 40  1  0
 20 41  1  0
 22 42  1  0
 23 43  1  0
M  END
>  <Energy>  (869) 
956.74854601607956

>  <compound_id>  (869) 
10051

>  <target_id>  (869) 
1

>  <reference_id>  (869) 
112

>  <inspiration_ids>  (869) 
[112, 80]

>  <energy_score>  (869) 
972.1137627335299

>  <distance_score>  (869) 
12.226898999444582

>  <path>  (869) 
/opt/xchem-fragalysis-2/maxwin/BulkDock/SCRATCH/511014/C10051-P112/C10051-P112.minimised.mol

>  <scratch_subdir>  (869) 
/opt/xchem-fragalysis-2/maxwin/BulkDock/SCRATCH/511014/C10051-P112

>  <fragmenstein_runtime>  (869) 
17.345463514328003

>  <fragmenstein_outcome>  (869) 
too moved

>  <fragmenstein_mode>  (869) 
expansion

>  <fragmenstein_error>  (869) 


$$$$
C10051-P80
     RDKit          3D

 43 44  0  0  0  0  0  0  0  0999 V2000
   -6.7781  -16.8114    9.1647 C   0  0  0  0  0  0  0  0  0  0  0  0
   -5.8036  -17.6552    9.7506 O   0  0  0  0  0  0  0  0  0  0  0  0
   -4.5164  -17.6913    9.0923 C   0  0  0  0  0  0  0  0  0  0  0  0
   -3.5551  -16.4389    9.2164 C   0  0  0  0  0  0  0  0  0  0  0  0
   -2.1149  -16.7467    8.9763 N   0  0  0  0  0  0  0  0  0  0  0  0
   -1.9528  -17.2909    7.7247 N   0  0  0  0  0  0  0  0  0  0  0  0
   -0.7280  -17.7916    7.7063 C   0  0  0  0  0  0  0  0  0  0  0  0
    0.0358  -17.4248    8.8262 C   0  0  0  0  0  0  0  0  0  0  0  0
   -0.7663  -16.6465    9.7384 C   0  0  0  0  0  0  0  0  0  0  0  0
    0.1284  -15.6652   10.6540 C   0  0  0  0  0  0  0  0  0  0  0  0
    1.2067  -16.1453   10.8443 O   0  0  0  0  0  0  0  0  0  0  0  0
   -0.4101  -14.3290   11.0202 N   0  0  0  0  0  0  0  0  0  0  0  0
    0.3832  -12.8999   11.7554 C   0  0  0  0  0  0  0  0  0  0  0  0
    0.2963  -13.3343   13.1335 C   0  0  0  0  0  0  0  0  0  0  0  0
    1.8765  -11.6482   11.2710 C   0  0  0  0  0  0  0  0  0  0  0  0
    2.8880  -10.2716   11.7603 N   0  0  0  0  0  0  0  0  0  0  0  0
    3.9111   -9.9926   13.2789 C   0  0  0  0  0  0  0  0  0  0  0  0
    4.1414  -10.7900   14.1763 O   0  0  0  0  0  0  0  0  0  0  0  0
    4.6265   -8.2402   13.7330 C   0  0  0  0  0  0  0  0  0  0  0  0
    6.2496   -8.0227   14.2004 C   0  0  0  0  0  0  0  0  0  0  0  0
    7.2625   -8.4960   13.5390 N   0  0  0  0  0  0  0  0  0  0  0  0
    6.8474   -7.7314   12.6155 C   0  0  0  0  0  0  0  0  0  0  0  0
    5.2300   -7.1873   12.9952 N   0  0  0  0  0  0  0  0  0  0  0  0
   -6.4582  -15.7677    9.2324 H   0  0  0  0  0  0  0  0  0  0  0  0
   -7.7161  -16.9277    9.7136 H   0  0  0  0  0  0  0  0  0  0  0  0
   -6.9436  -17.0784    8.1177 H   0  0  0  0  0  0  0  0  0  0  0  0
   -4.0121  -18.5665    9.5093 H   0  0  0  0  0  0  0  0  0  0  0  0
   -4.6786  -17.9189    8.0314 H   0  0  0  0  0  0  0  0  0  0  0  0
   -3.6340  -15.8203   10.0959 H   0  0  0  0  0  0  0  0  0  0  0  0
   -3.8294  -15.7524    8.4031 H   0  0  0  0  0  0  0  0  0  0  0  0
   -0.4076  -18.3647    6.8472 H   0  0  0  0  0  0  0  0  0  0  0  0
    1.0901  -17.6261    8.9643 H   0  0  0  0  0  0  0  0  0  0  0  0
   -1.3741  -14.2909   10.7822 H   0  0  0  0  0  0  0  0  0  0  0  0
   -0.3993  -12.1574   11.5956 H   0  0  0  0  0  0  0  0  0  0  0  0
    0.6765  -14.3355   13.0633 H   0  0  0  0  0  0  0  0  0  0  0  0
    0.8071  -12.6428   13.7790 H   0  0  0  0  0  0  0  0  0  0  0  0
   -0.6758  -13.4711   13.5418 H   0  0  0  0  0  0  0  0  0  0  0  0
    1.3744  -11.2382   12.1745 H   0  0  0  0  0  0  0  0  0  0  0  0
    1.2591  -10.8782   10.7899 H   0  0  0  0  0  0  0  0  0  0  0  0
    2.8046   -9.4080   11.2384 H   0  0  0  0  0  0  0  0  0  0  0  0
    6.5834   -7.4314   15.0903 H   0  0  0  0  0  0  0  0  0  0  0  0
    7.2685   -7.6223   11.6178 H   0  0  0  0  0  0  0  0  0  0  0  0
    4.6634   -6.7265   12.2957 H   0  0  0  0  0  0  0  0  0  0  0  0
  1  2  1  0
  2  3  1  0
  3  4  1  0
  4  5  1  0
  5  6  1  0
  6  7  2  0
  7  8  1  0
  8  9  2  0
  9 10  1  0
 10 11  2  0
 10 12  1  0
 12 13  1  0
 13 14  1  0
 13 15  1  0
 15 16  1  0
 16 17  1  0
 17 18  2  0
 17 19  1  0
 19 20  2  0
 20 21  1  0
 21 22  2  0
 22 23  1  0
  9  5  1  0
 23 19  1  0
  1 24  1  0
  1 25  1  0
  1 26  1  0
  3 27  1  0
  3 28  1  0
  4 29  1  0
  4 30  1  0
  7 31  1  0
  8 32  1  0
 12 33  1  0
 13 34  1  0
 14 35  1  0
 14 36  1  0
 14 37  1  0
 15 38  1  0
 15 39  1  0
 16 40  1  0
 20 41  1  0
 22 42  1  0
 23 43  1  0
M  END
>  <Energy>  (870) 
551.51557301388129

>  <compound_id>  (870) 
10051

>  <target_id>  (870) 
1

>  <reference_id>  (870) 
80

>  <inspiration_ids>  (870) 
[112, 80]

>  <energy_score>  (870) 
566.8807897313317

>  <distance_score>  (870) 
12.55034924722869

>  <path>  (870) 
/opt/xchem-fragalysis-2/maxwin/BulkDock/SCRATCH/511014/C10051-P80/C10051-P80.minimised.mol

>  <scratch_subdir>  (870) 
/opt/xchem-fragalysis-2/maxwin/BulkDock/SCRATCH/511014/C10051-P80

>  <fragmenstein_runtime>  (870) 
25.55333924293518

>  <fragmenstein_outcome>  (870) 
too moved

>  <fragmenstein_mode>  (870) 
expansion

>  <fragmenstein_error>  (870) 


$$$$
C10052-P112
     RDKit          3D

 45 46  0  0  0  0  0  0  0  0999 V2000
   -9.9895  -23.5613   13.2308 C   0  0  0  0  0  0  0  0  0  0  0  0
   -9.4999  -22.1920   12.7643 C   0  0  0  0  0  0  0  0  0  0  0  0
   -7.9594  -21.9813   12.9031 C   0  0  0  0  0  0  0  0  0  0  0  0
   -7.1699  -20.8128   12.2015 C   0  0  0  0  0  0  0  0  0  0  0  0
   -5.7286  -21.0598   12.1100 N   0  0  0  0  0  0  0  0  0  0  0  0
   -5.4419  -22.0911   11.2554 N   0  0  0  0  0  0  0  0  0  0  0  0
   -4.3053  -21.7052   10.7255 C   0  0  0  0  0  0  0  0  0  0  0  0
   -4.0318  -20.4426   11.2479 C   0  0  0  0  0  0  0  0  0  0  0  0
   -4.4762  -20.2919   12.5983 C   0  0  0  0  0  0  0  0  0  0  0  0
   -4.5133  -18.8097   13.4871 C   0  0  0  0  0  0  0  0  0  0  0  0
   -5.6194  -18.3400   13.4352 O   0  0  0  0  0  0  0  0  0  0  0  0
   -3.1232  -17.9581   14.2295 N   0  0  0  0  0  0  0  0  0  0  0  0
   -2.9705  -16.2183   14.9142 C   0  0  0  0  0  0  0  0  0  0  0  0
   -3.8683  -16.4618   16.2279 C   0  0  0  0  0  0  0  0  0  0  0  0
   -1.6670  -14.5070   14.5376 C   0  0  0  0  0  0  0  0  0  0  0  0
   -0.4687  -13.1306   13.4891 N   0  0  0  0  0  0  0  0  0  0  0  0
    1.2850  -12.2766   13.9396 C   0  0  0  0  0  0  0  0  0  0  0  0
    1.7430  -12.7334   14.9257 O   0  0  0  0  0  0  0  0  0  0  0  0
    2.4098  -10.7796   13.4069 C   0  0  0  0  0  0  0  0  0  0  0  0
    3.9609   -9.9625   13.3802 C   0  0  0  0  0  0  0  0  0  0  0  0
    5.1886  -10.5177   13.2131 N   0  0  0  0  0  0  0  0  0  0  0  0
    4.9666  -11.2923   14.1395 C   0  0  0  0  0  0  0  0  0  0  0  0
    3.7957  -10.7824   14.6945 N   0  0  0  0  0  0  0  0  0  0  0  0
  -11.0696  -23.6523   13.0800 H   0  0  0  0  0  0  0  0  0  0  0  0
   -9.7745  -23.7130   14.2914 H   0  0  0  0  0  0  0  0  0  0  0  0
   -9.5057  -24.3623   12.6629 H   0  0  0  0  0  0  0  0  0  0  0  0
   -9.8112  -22.1085   11.7320 H   0  0  0  0  0  0  0  0  0  0  0  0
  -10.0490  -21.4355   13.3213 H   0  0  0  0  0  0  0  0  0  0  0  0
   -7.7573  -21.9353   13.9684 H   0  0  0  0  0  0  0  0  0  0  0  0
   -7.4814  -22.8976   12.5515 H   0  0  0  0  0  0  0  0  0  0  0  0
   -7.5828  -20.6029   11.2192 H   0  0  0  0  0  0  0  0  0  0  0  0
   -7.2532  -19.7782   12.3864 H   0  0  0  0  0  0  0  0  0  0  0  0
   -3.9307  -22.2079    9.8441 H   0  0  0  0  0  0  0  0  0  0  0  0
   -3.6979  -19.6571   10.5924 H   0  0  0  0  0  0  0  0  0  0  0  0
   -2.3302  -18.5703   14.2366 H   0  0  0  0  0  0  0  0  0  0  0  0
   -3.7761  -16.0930   14.2277 H   0  0  0  0  0  0  0  0  0  0  0  0
   -4.9099  -16.6600   15.9570 H   0  0  0  0  0  0  0  0  0  0  0  0
   -3.7794  -15.5967   16.8511 H   0  0  0  0  0  0  0  0  0  0  0  0
   -3.6027  -17.3520   16.8134 H   0  0  0  0  0  0  0  0  0  0  0  0
   -1.3574  -14.0889   15.5536 H   0  0  0  0  0  0  0  0  0  0  0  0
   -2.9173  -14.1652   14.0057 H   0  0  0  0  0  0  0  0  0  0  0  0
   -0.8544  -12.6457   12.6885 H   0  0  0  0  0  0  0  0  0  0  0  0
    4.0156   -8.8676   13.3883 H   0  0  0  0  0  0  0  0  0  0  0  0
    5.4887  -12.2041   14.2333 H   0  0  0  0  0  0  0  0  0  0  0  0
    3.5933  -11.3130   15.5351 H   0  0  0  0  0  0  0  0  0  0  0  0
  1  2  1  0
  2  3  1  0
  3  4  1  0
  4  5  1  0
  5  6  1  0
  6  7  2  0
  7  8  1  0
  8  9  2  0
  9 10  1  0
 10 11  2  0
 10 12  1  0
 12 13  1  0
 13 14  1  0
 13 15  1  0
 15 16  1  0
 16 17  1  0
 17 18  2  0
 17 19  1  0
 19 20  2  0
 20 21  1  0
 21 22  2  0
 22 23  1  0
  9  5  1  0
 23 19  1  0
  1 24  1  0
  1 25  1  0
  1 26  1  0
  2 27  1  0
  2 28  1  0
  3 29  1  0
  3 30  1  0
  4 31  1  0
  4 32  1  0
  7 33  1  0
  8 34  1  0
 12 35  1  0
 13 36  1  0
 14 37  1  0
 14 38  1  0
 14 39  1  0
 15 40  1  0
 15 41  1  0
 16 42  1  0
 20 43  1  0
 22 44  1  0
 23 45  1  0
M  END
>  <Energy>  (871) 
940.53376301273977

>  <compound_id>  (871) 
10052

>  <target_id>  (871) 
1

>  <reference_id>  (871) 
112

>  <inspiration_ids>  (871) 
[112, 80]

>  <energy_score>  (871) 
966.0964644531872

>  <distance_score>  (871) 
9.618897576140824

>  <path>  (871) 
/opt/xchem-fragalysis-2/maxwin/BulkDock/SCRATCH/511014/C10052-P112/C10052-P112.minimised.mol

>  <scratch_subdir>  (871) 
/opt/xchem-fragalysis-2/maxwin/BulkDock/SCRATCH/511014/C10052-P112

>  <fragmenstein_runtime>  (871) 
15.498396873474121

>  <fragmenstein_outcome>  (871) 
too moved

>  <fragmenstein_mode>  (871) 
expansion

>  <fragmenstein_error>  (871) 


$$$$
C10052-P80
     RDKit          3D

 45 46  0  0  0  0  0  0  0  0999 V2000
  -11.0669  -15.6631   12.6717 C   0  0  0  0  0  0  0  0  0  0  0  0
   -9.7886  -15.8014   11.8448 C   0  0  0  0  0  0  0  0  0  0  0  0
   -8.6536  -16.3401   12.7188 C   0  0  0  0  0  0  0  0  0  0  0  0
   -7.2235  -16.4534   12.1223 C   0  0  0  0  0  0  0  0  0  0  0  0
   -6.9273  -17.5193   11.1504 N   0  0  0  0  0  0  0  0  0  0  0  0
   -7.8975  -17.6489   10.2060 N   0  0  0  0  0  0  0  0  0  0  0  0
   -8.5387  -18.7160   10.6679 C   0  0  0  0  0  0  0  0  0  0  0  0
   -7.7032  -19.4124   11.5649 C   0  0  0  0  0  0  0  0  0  0  0  0
   -6.4001  -18.8170   11.5050 C   0  0  0  0  0  0  0  0  0  0  0  0
   -4.8974  -19.5421   10.9394 C   0  0  0  0  0  0  0  0  0  0  0  0
   -4.5588  -19.0917    9.8725 O   0  0  0  0  0  0  0  0  0  0  0  0
   -4.3051  -20.6558   11.7605 N   0  0  0  0  0  0  0  0  0  0  0  0
   -3.1535  -21.6421   11.4521 C   0  0  0  0  0  0  0  0  0  0  0  0
   -2.8890  -21.9016    9.9488 C   0  0  0  0  0  0  0  0  0  0  0  0
   -1.9086  -21.9693   12.5574 C   0  0  0  0  0  0  0  0  0  0  0  0
   -0.5984  -21.2171   12.6347 N   0  0  0  0  0  0  0  0  0  0  0  0
    0.5284  -21.1646   11.7131 C   0  0  0  0  0  0  0  0  0  0  0  0
    0.7330  -21.7664   10.7004 O   0  0  0  0  0  0  0  0  0  0  0  0
    1.5419  -20.1138   12.0433 C   0  0  0  0  0  0  0  0  0  0  0  0
    2.0849  -19.1472   11.1857 C   0  0  0  0  0  0  0  0  0  0  0  0
    3.1561  -18.4688   11.7328 N   0  0  0  0  0  0  0  0  0  0  0  0
    3.2917  -19.0039   12.9204 C   0  0  0  0  0  0  0  0  0  0  0  0
    2.3022  -19.9280   13.1841 N   0  0  0  0  0  0  0  0  0  0  0  0
  -10.9782  -14.8173   13.3623 H   0  0  0  0  0  0  0  0  0  0  0  0
  -11.2543  -16.5537   13.2753 H   0  0  0  0  0  0  0  0  0  0  0  0
  -11.9253  -15.4718   12.0212 H   0  0  0  0  0  0  0  0  0  0  0  0
   -9.9880  -16.4437   10.9874 H   0  0  0  0  0  0  0  0  0  0  0  0
   -9.5116  -14.8195   11.4443 H   0  0  0  0  0  0  0  0  0  0  0  0
   -8.5696  -15.6790   13.5922 H   0  0  0  0  0  0  0  0  0  0  0  0
   -8.9766  -17.2946   13.0983 H   0  0  0  0  0  0  0  0  0  0  0  0
   -6.9377  -15.5149   11.6352 H   0  0  0  0  0  0  0  0  0  0  0  0
   -6.5477  -16.6174   12.9646 H   0  0  0  0  0  0  0  0  0  0  0  0
   -9.4949  -18.9916   10.2577 H   0  0  0  0  0  0  0  0  0  0  0  0
   -7.9628  -20.4139   11.8601 H   0  0  0  0  0  0  0  0  0  0  0  0
   -4.8918  -20.8246   12.5610 H   0  0  0  0  0  0  0  0  0  0  0  0
   -3.7042  -22.5789   11.6184 H   0  0  0  0  0  0  0  0  0  0  0  0
   -3.7654  -22.3759    9.4899 H   0  0  0  0  0  0  0  0  0  0  0  0
   -2.7074  -20.9988    9.3629 H   0  0  0  0  0  0  0  0  0  0  0  0
   -2.0401  -22.5802    9.8186 H   0  0  0  0  0  0  0  0  0  0  0  0
   -2.3235  -21.9035   13.5665 H   0  0  0  0  0  0  0  0  0  0  0  0
   -1.6138  -23.0088   12.3702 H   0  0  0  0  0  0  0  0  0  0  0  0
   -0.3984  -20.6259   13.4392 H   0  0  0  0  0  0  0  0  0  0  0  0
    1.7660  -18.9528   10.1675 H   0  0  0  0  0  0  0  0  0  0  0  0
    4.0401  -18.7459   13.6563 H   0  0  0  0  0  0  0  0  0  0  0  0
    2.2141  -20.4556   14.0400 H   0  0  0  0  0  0  0  0  0  0  0  0
  1  2  1  0
  2  3  1  0
  3  4  1  0
  4  5  1  0
  5  6  1  0
  6  7  2  0
  7  8  1  0
  8  9  2  0
  9 10  1  0
 10 11  2  0
 10 12  1  0
 12 13  1  0
 13 14  1  0
 13 15  1  0
 15 16  1  0
 16 17  1  0
 17 18  2  0
 17 19  1  0
 19 20  2  0
 20 21  1  0
 21 22  2  0
 22 23  1  0
  9  5  1  0
 23 19  1  0
  1 24  1  0
  1 25  1  0
  1 26  1  0
  2 27  1  0
  2 28  1  0
  3 29  1  0
  3 30  1  0
  4 31  1  0
  4 32  1  0
  7 33  1  0
  8 34  1  0
 12 35  1  0
 13 36  1  0
 14 37  1  0
 14 38  1  0
 14 39  1  0
 15 40  1  0
 15 41  1  0
 16 42  1  0
 20 43  1  0
 22 44  1  0
 23 45  1  0
M  END
>  <Energy>  (872) 
86.954222700825198

>  <compound_id>  (872) 
10052

>  <target_id>  (872) 
1

>  <reference_id>  (872) 
80

>  <inspiration_ids>  (872) 
[112, 80]

>  <energy_score>  (872) 
112.516924141284

>  <distance_score>  (872) 
13.737371070687574

>  <path>  (872) 
/opt/xchem-fragalysis-2/maxwin/BulkDock/SCRATCH/511014/C10052-P80/C10052-P80.minimised.mol

>  <scratch_subdir>  (872) 
/opt/xchem-fragalysis-2/maxwin/BulkDock/SCRATCH/511014/C10052-P80

>  <fragmenstein_runtime>  (872) 
29.401392698287964

>  <fragmenstein_outcome>  (872) 
too moved

>  <fragmenstein_mode>  (872) 
expansion

>  <fragmenstein_error>  (872) 


$$$$
C10053-P112
     RDKit          3D

 33 34  0  0  0  0  0  0  0  0999 V2000
    5.3050   -5.7365    7.8328 C   0  0  0  0  0  0  0  0  0  0  0  0
    6.0674   -7.0055    7.4422 C   0  0  0  0  0  0  0  0  0  0  0  0
    7.2851   -7.2619    8.4449 C   0  0  0  0  0  0  0  0  0  0  0  0
    7.1097   -6.9321    9.8947 N   0  0  0  0  0  0  0  0  0  0  0  0
    8.2502   -7.1221   11.3885 C   0  0  0  0  0  0  0  0  0  0  0  0
    9.2390   -7.6720   11.1128 O   0  0  0  0  0  0  0  0  0  0  0  0
    8.2279   -6.7084   13.3371 C   0  0  0  0  0  0  0  0  0  0  0  0
    9.2203   -6.9782   14.8378 C   0  0  0  0  0  0  0  0  0  0  0  0
   10.6580   -5.7556   14.8996 N   0  0  0  0  0  0  0  0  0  0  0  0
   10.2820   -4.5187   14.5724 C   0  0  0  0  0  0  0  0  0  0  0  0
    8.5888   -5.0926   14.3443 N   0  0  0  0  0  0  0  0  0  0  0  0
    5.0860   -8.0837    7.0767 N   0  0  0  0  0  0  0  0  0  0  0  0
    3.9869   -8.0908    6.1070 C   0  0  0  0  0  0  0  0  0  0  0  0
    3.6483   -7.2647    5.3092 O   0  0  0  0  0  0  0  0  0  0  0  0
    3.0752   -9.2847    6.1060 C   0  0  0  0  0  0  0  0  0  0  0  0
    3.0153  -10.5514    6.6767 C   0  0  0  0  0  0  0  0  0  0  0  0
    1.8207  -11.1480    6.2197 C   0  0  0  0  0  0  0  0  0  0  0  0
    1.4627  -12.4078    6.4649 F   0  0  0  0  0  0  0  0  0  0  0  0
    1.0879  -10.3280    5.4861 N   0  0  0  0  0  0  0  0  0  0  0  0
    1.8636   -9.2296    5.4152 N   0  0  0  0  0  0  0  0  0  0  0  0
    4.6388   -5.4111    7.0270 H   0  0  0  0  0  0  0  0  0  0  0  0
    5.9942   -4.9110    8.0380 H   0  0  0  0  0  0  0  0  0  0  0  0
    4.6830   -5.9056    8.7178 H   0  0  0  0  0  0  0  0  0  0  0  0
    6.5443   -6.7974    6.4747 H   0  0  0  0  0  0  0  0  0  0  0  0
    7.6503   -8.2895    8.3563 H   0  0  0  0  0  0  0  0  0  0  0  0
    8.1158   -6.6171    8.1332 H   0  0  0  0  0  0  0  0  0  0  0  0
    6.2622   -6.5442   10.2088 H   0  0  0  0  0  0  0  0  0  0  0  0
    9.5984   -7.9262   15.2382 H   0  0  0  0  0  0  0  0  0  0  0  0
   10.4892   -3.4680   14.6979 H   0  0  0  0  0  0  0  0  0  0  0  0
    8.3796   -4.1174   14.4618 H   0  0  0  0  0  0  0  0  0  0  0  0
    5.1291   -8.9838    7.5341 H   0  0  0  0  0  0  0  0  0  0  0  0
    3.7167  -10.9647    7.3739 H   0  0  0  0  0  0  0  0  0  0  0  0
    1.5417   -8.4350    4.8698 H   0  0  0  0  0  0  0  0  0  0  0  0
  1  2  1  0
  2  3  1  0
  3  4  1  0
  4  5  1  0
  5  6  2  0
  5  7  1  0
  7  8  2  0
  8  9  1  0
  9 10  2  0
 10 11  1  0
  2 12  1  0
 12 13  1  0
 13 14  2  0
 13 15  1  0
 15 16  2  0
 16 17  1  0
 17 18  1  0
 17 19  2  0
 19 20  1  0
 11  7  1  0
 20 15  1  0
  1 21  1  0
  1 22  1  0
  1 23  1  0
  2 24  1  0
  3 25  1  0
  3 26  1  0
  4 27  1  0
  8 28  1  0
 10 29  1  0
 11 30  1  0
 12 31  1  0
 16 32  1  0
 20 33  1  0
M  END
>  <Energy>  (873) 
494.34948463043719

>  <compound_id>  (873) 
10053

>  <target_id>  (873) 
1

>  <reference_id>  (873) 
112

>  <inspiration_ids>  (873) 
[112, 80]

>  <energy_score>  (873) 
529.8588534859457

>  <distance_score>  (873) 
17.77498063480271

>  <path>  (873) 
/opt/xchem-fragalysis-2/maxwin/BulkDock/SCRATCH/511014/C10053-P112/C10053-P112.minimised.mol

>  <scratch_subdir>  (873) 
/opt/xchem-fragalysis-2/maxwin/BulkDock/SCRATCH/511014/C10053-P112

>  <fragmenstein_runtime>  (873) 
10.626595735549927

>  <fragmenstein_outcome>  (873) 
too moved

>  <fragmenstein_mode>  (873) 
expansion

>  <fragmenstein_error>  (873) 


$$$$
C10053-P80
     RDKit          3D

 33 34  0  0  0  0  0  0  0  0999 V2000
    6.2199  -16.5099    8.7285 C   0  0  0  0  0  0  0  0  0  0  0  0
    5.2380  -16.2657    9.8977 C   0  0  0  0  0  0  0  0  0  0  0  0
    5.5177  -14.7966   11.0176 C   0  0  0  0  0  0  0  0  0  0  0  0
    6.3936  -13.8653   11.8633 N   0  0  0  0  0  0  0  0  0  0  0  0
    6.0199  -12.8767   13.2211 C   0  0  0  0  0  0  0  0  0  0  0  0
    5.0161  -12.7777   13.8656 O   0  0  0  0  0  0  0  0  0  0  0  0
    6.8510  -11.9836   13.5962 C   0  0  0  0  0  0  0  0  0  0  0  0
    6.0698  -10.6317   13.8593 C   0  0  0  0  0  0  0  0  0  0  0  0
    7.2233   -9.2733   13.7440 N   0  0  0  0  0  0  0  0  0  0  0  0
    8.3064   -9.6620   14.3328 C   0  0  0  0  0  0  0  0  0  0  0  0
    8.3234  -11.0050   14.2643 N   0  0  0  0  0  0  0  0  0  0  0  0
    3.9081  -16.8326    9.5835 N   0  0  0  0  0  0  0  0  0  0  0  0
    3.2570  -18.0404   10.0537 C   0  0  0  0  0  0  0  0  0  0  0  0
    3.5992  -18.8376   10.8743 O   0  0  0  0  0  0  0  0  0  0  0  0
    2.0219  -18.4046    9.3404 C   0  0  0  0  0  0  0  0  0  0  0  0
    1.4633  -19.6842    9.2672 C   0  0  0  0  0  0  0  0  0  0  0  0
    0.4452  -19.5996    8.3098 C   0  0  0  0  0  0  0  0  0  0  0  0
   -0.2612  -20.6482    7.8690 F   0  0  0  0  0  0  0  0  0  0  0  0
    0.2977  -18.3613    7.8382 N   0  0  0  0  0  0  0  0  0  0  0  0
    1.1387  -17.6475    8.6174 N   0  0  0  0  0  0  0  0  0  0  0  0
    6.5644  -17.5532    8.7478 H   0  0  0  0  0  0  0  0  0  0  0  0
    5.7356  -16.3991    7.7547 H   0  0  0  0  0  0  0  0  0  0  0  0
    7.1217  -15.8945    8.7848 H   0  0  0  0  0  0  0  0  0  0  0  0
    5.4794  -17.1474   10.4831 H   0  0  0  0  0  0  0  0  0  0  0  0
    6.3477  -14.6923   10.2918 H   0  0  0  0  0  0  0  0  0  0  0  0
    4.8583  -14.0535   10.5106 H   0  0  0  0  0  0  0  0  0  0  0  0
    7.3070  -13.7712   11.6276 H   0  0  0  0  0  0  0  0  0  0  0  0
    4.9958  -10.4506   13.8263 H   0  0  0  0  0  0  0  0  0  0  0  0
    9.0138   -9.0735   14.8938 H   0  0  0  0  0  0  0  0  0  0  0  0
    8.6267  -11.4969   15.0867 H   0  0  0  0  0  0  0  0  0  0  0  0
    3.3733  -16.4455    8.8225 H   0  0  0  0  0  0  0  0  0  0  0  0
    1.8194  -20.5670    9.7803 H   0  0  0  0  0  0  0  0  0  0  0  0
    1.1046  -16.6395    8.5410 H   0  0  0  0  0  0  0  0  0  0  0  0
  1  2  1  0
  2  3  1  0
  3  4  1  0
  4  5  1  0
  5  6  2  0
  5  7  1  0
  7  8  2  0
  8  9  1  0
  9 10  2  0
 10 11  1  0
  2 12  1  0
 12 13  1  0
 13 14  2  0
 13 15  1  0
 15 16  2  0
 16 17  1  0
 17 18  1  0
 17 19  2  0
 19 20  1  0
 11  7  1  0
 20 15  1  0
  1 21  1  0
  1 22  1  0
  1 23  1  0
  2 24  1  0
  3 25  1  0
  3 26  1  0
  4 27  1  0
  8 28  1  0
 10 29  1  0
 11 30  1  0
 12 31  1  0
 16 32  1  0
 20 33  1  0
M  END
>  <Energy>  (874) 
314.95856786907058

>  <compound_id>  (874) 
10053

>  <target_id>  (874) 
1

>  <reference_id>  (874) 
80

>  <inspiration_ids>  (874) 
[112, 80]

>  <energy_score>  (874) 
350.4679367245753

>  <distance_score>  (874) 
13.770188341680614

>  <path>  (874) 
/opt/xchem-fragalysis-2/maxwin/BulkDock/SCRATCH/511014/C10053-P80/C10053-P80.minimised.mol

>  <scratch_subdir>  (874) 
/opt/xchem-fragalysis-2/maxwin/BulkDock/SCRATCH/511014/C10053-P80

>  <fragmenstein_runtime>  (874) 
10.627626895904541

>  <fragmenstein_outcome>  (874) 
too moved

>  <fragmenstein_mode>  (874) 
expansion

>  <fragmenstein_error>  (874) 


$$$$
C10054-P112
     RDKit          3D

 42 43  0  0  0  0  0  0  0  0999 V2000
   -3.4152  -20.5587    8.4142 C   0  0  0  0  0  0  0  0  0  0  0  0
   -3.0352  -19.6232    7.2690 C   0  0  0  0  0  0  0  0  0  0  0  0
   -1.8762  -18.5919    7.4888 C   0  0  0  0  0  0  0  0  0  0  0  0
   -0.5160  -19.1058    7.7448 N   0  0  0  0  0  0  0  0  0  0  0  0
   -0.3411  -20.4469    7.5824 N   0  0  0  0  0  0  0  0  0  0  0  0
    0.8442  -20.6955    8.1247 C   0  0  0  0  0  0  0  0  0  0  0  0
    1.4956  -19.5312    8.5641 C   0  0  0  0  0  0  0  0  0  0  0  0
    0.6398  -18.4681    8.3073 C   0  0  0  0  0  0  0  0  0  0  0  0
    0.8163  -17.0478    8.7787 C   0  0  0  0  0  0  0  0  0  0  0  0
    1.3527  -16.2302    8.0857 O   0  0  0  0  0  0  0  0  0  0  0  0
    0.1643  -16.9149   10.0592 N   0  0  0  0  0  0  0  0  0  0  0  0
   -0.1469  -15.7081   10.8901 C   0  0  0  0  0  0  0  0  0  0  0  0
   -1.5906  -15.2718   10.6708 C   0  0  0  0  0  0  0  0  0  0  0  0
    0.3868  -14.4931   11.8175 C   0  0  0  0  0  0  0  0  0  0  0  0
    0.7170  -13.1442   11.4630 N   0  0  0  0  0  0  0  0  0  0  0  0
    0.2597  -11.9286   11.9570 C   0  0  0  0  0  0  0  0  0  0  0  0
   -0.5766  -11.6876   12.7433 O   0  0  0  0  0  0  0  0  0  0  0  0
    1.0883  -10.8399   11.4096 C   0  0  0  0  0  0  0  0  0  0  0  0
    1.0967  -10.1287   10.2709 C   0  0  0  0  0  0  0  0  0  0  0  0
    2.3307  -10.8155    9.4553 N   0  0  0  0  0  0  0  0  0  0  0  0
    3.0646  -11.2306   10.3974 C   0  0  0  0  0  0  0  0  0  0  0  0
    2.4602  -10.5866   11.4091 N   0  0  0  0  0  0  0  0  0  0  0  0
   -3.9522  -21.4195    8.0116 H   0  0  0  0  0  0  0  0  0  0  0  0
   -4.0484  -20.0615    9.1482 H   0  0  0  0  0  0  0  0  0  0  0  0
   -2.5382  -20.9630    8.9217 H   0  0  0  0  0  0  0  0  0  0  0  0
   -2.7715  -20.2413    6.4009 H   0  0  0  0  0  0  0  0  0  0  0  0
   -3.9242  -19.0543    6.9754 H   0  0  0  0  0  0  0  0  0  0  0  0
   -1.7646  -18.0168    6.5605 H   0  0  0  0  0  0  0  0  0  0  0  0
   -2.1398  -17.8694    8.2647 H   0  0  0  0  0  0  0  0  0  0  0  0
    1.1992  -21.7170    8.1646 H   0  0  0  0  0  0  0  0  0  0  0  0
    2.4602  -19.4619    9.0468 H   0  0  0  0  0  0  0  0  0  0  0  0
   -0.2496  -17.8031   10.3116 H   0  0  0  0  0  0  0  0  0  0  0  0
   -0.0584  -16.3944   11.6872 H   0  0  0  0  0  0  0  0  0  0  0  0
   -2.3656  -15.0853   11.3845 H   0  0  0  0  0  0  0  0  0  0  0  0
   -2.1648  -15.6606    9.8249 H   0  0  0  0  0  0  0  0  0  0  0  0
   -1.3346  -14.2803   10.5955 H   0  0  0  0  0  0  0  0  0  0  0  0
    1.3194  -14.8313   12.1228 H   0  0  0  0  0  0  0  0  0  0  0  0
   -0.3102  -14.3225   12.6124 H   0  0  0  0  0  0  0  0  0  0  0  0
    1.4921  -12.9772   10.8687 H   0  0  0  0  0  0  0  0  0  0  0  0
    0.3377   -9.6923    9.6377 H   0  0  0  0  0  0  0  0  0  0  0  0
    3.8796  -11.9179   10.3591 H   0  0  0  0  0  0  0  0  0  0  0  0
    2.8881  -10.0843   12.1752 H   0  0  0  0  0  0  0  0  0  0  0  0
  1  2  1  0
  2  3  1  0
  3  4  1  0
  4  5  1  0
  5  6  2  0
  6  7  1  0
  7  8  2  0
  8  9  1  0
  9 10  2  0
  9 11  1  0
 11 12  1  0
 12 13  1  0
 12 14  1  0
 14 15  1  0
 15 16  1  0
 16 17  2  0
 16 18  1  0
 18 19  2  0
 19 20  1  0
 20 21  2  0
 21 22  1  0
  8  4  1  0
 22 18  1  0
  1 23  1  0
  1 24  1  0
  1 25  1  0
  2 26  1  0
  2 27  1  0
  3 28  1  0
  3 29  1  0
  6 30  1  0
  7 31  1  0
 11 32  1  0
 12 33  1  0
 13 34  1  0
 13 35  1  0
 13 36  1  0
 14 37  1  0
 14 38  1  0
 15 39  1  0
 19 40  1  0
 21 41  1  0
 22 42  1  0
M  END
>  <Energy>  (875) 
143.20708800235201

>  <compound_id>  (875) 
10054

>  <target_id>  (875) 
1

>  <reference_id>  (875) 
112

>  <inspiration_ids>  (875) 
[112, 80]

>  <energy_score>  (875) 
157.59767417250296

>  <distance_score>  (875) 
14.344770087833322

>  <path>  (875) 
/opt/xchem-fragalysis-2/maxwin/BulkDock/SCRATCH/511014/C10054-P112/C10054-P112.minimised.mol

>  <scratch_subdir>  (875) 
/opt/xchem-fragalysis-2/maxwin/BulkDock/SCRATCH/511014/C10054-P112

>  <fragmenstein_runtime>  (875) 
16.799922943115234

>  <fragmenstein_outcome>  (875) 
too moved

>  <fragmenstein_mode>  (875) 
expansion

>  <fragmenstein_error>  (875) 


$$$$
C10054-P80
     RDKit          3D

 42 43  0  0  0  0  0  0  0  0999 V2000
   -8.9663  -20.2150   11.3537 C   0  0  0  0  0  0  0  0  0  0  0  0
   -8.4145  -21.4173   12.0963 C   0  0  0  0  0  0  0  0  0  0  0  0
   -6.9478  -21.0985   13.0418 C   0  0  0  0  0  0  0  0  0  0  0  0
   -5.7083  -20.0955   13.0589 N   0  0  0  0  0  0  0  0  0  0  0  0
   -5.8301  -19.0379   13.9521 N   0  0  0  0  0  0  0  0  0  0  0  0
   -4.7967  -18.9509   14.7600 C   0  0  0  0  0  0  0  0  0  0  0  0
   -3.8260  -19.8107   14.3422 C   0  0  0  0  0  0  0  0  0  0  0  0
   -4.2318  -20.3174   13.0757 C   0  0  0  0  0  0  0  0  0  0  0  0
   -3.3305  -21.2497   12.1791 C   0  0  0  0  0  0  0  0  0  0  0  0
   -3.6513  -21.4983   11.0518 O   0  0  0  0  0  0  0  0  0  0  0  0
   -2.1146  -21.6428   12.9473 N   0  0  0  0  0  0  0  0  0  0  0  0
   -0.9967  -22.5277   12.5930 C   0  0  0  0  0  0  0  0  0  0  0  0
   -1.5524  -23.8784   12.1307 C   0  0  0  0  0  0  0  0  0  0  0  0
    0.1065  -22.0483   11.5996 C   0  0  0  0  0  0  0  0  0  0  0  0
    1.0173  -20.9472   11.9411 N   0  0  0  0  0  0  0  0  0  0  0  0
    1.9656  -20.2173   11.1291 C   0  0  0  0  0  0  0  0  0  0  0  0
    2.1906  -20.2731    9.9573 O   0  0  0  0  0  0  0  0  0  0  0  0
    2.8538  -19.2964   11.8709 C   0  0  0  0  0  0  0  0  0  0  0  0
    3.5679  -18.2226   11.3378 C   0  0  0  0  0  0  0  0  0  0  0  0
    4.4153  -17.6436   12.2518 N   0  0  0  0  0  0  0  0  0  0  0  0
    4.2577  -18.3522   13.3409 C   0  0  0  0  0  0  0  0  0  0  0  0
    3.3117  -19.3309   13.1712 N   0  0  0  0  0  0  0  0  0  0  0  0
   -9.3314  -20.5113   10.3693 H   0  0  0  0  0  0  0  0  0  0  0  0
   -8.2177  -19.4290   11.2205 H   0  0  0  0  0  0  0  0  0  0  0  0
   -9.7767  -19.7648   11.9207 H   0  0  0  0  0  0  0  0  0  0  0  0
   -8.3022  -22.3068   11.4744 H   0  0  0  0  0  0  0  0  0  0  0  0
   -9.1857  -21.8330   12.7723 H   0  0  0  0  0  0  0  0  0  0  0  0
   -6.6302  -22.1111   13.0546 H   0  0  0  0  0  0  0  0  0  0  0  0
   -7.2587  -21.1862   14.0515 H   0  0  0  0  0  0  0  0  0  0  0  0
   -4.8167  -18.2605   15.5932 H   0  0  0  0  0  0  0  0  0  0  0  0
   -2.8944  -19.9354   14.8614 H   0  0  0  0  0  0  0  0  0  0  0  0
   -2.2084  -21.3306   13.8958 H   0  0  0  0  0  0  0  0  0  0  0  0
   -0.4886  -22.6994   13.5509 H   0  0  0  0  0  0  0  0  0  0  0  0
   -2.0620  -23.7884   11.1655 H   0  0  0  0  0  0  0  0  0  0  0  0
   -2.2753  -24.2723   12.8539 H   0  0  0  0  0  0  0  0  0  0  0  0
   -0.7515  -24.6174   12.0231 H   0  0  0  0  0  0  0  0  0  0  0  0
   -0.3063  -21.8440   10.6062 H   0  0  0  0  0  0  0  0  0  0  0  0
    0.7894  -22.8932   11.4366 H   0  0  0  0  0  0  0  0  0  0  0  0
    1.0420  -20.5837   12.8844 H   0  0  0  0  0  0  0  0  0  0  0  0
    3.5138  -17.8651   10.3155 H   0  0  0  0  0  0  0  0  0  0  0  0
    4.7644  -18.1968   14.2823 H   0  0  0  0  0  0  0  0  0  0  0  0
    3.0233  -19.9833   13.8839 H   0  0  0  0  0  0  0  0  0  0  0  0
  1  2  1  0
  2  3  1  0
  3  4  1  0
  4  5  1  0
  5  6  2  0
  6  7  1  0
  7  8  2  0
  8  9  1  0
  9 10  2  0
  9 11  1  0
 11 12  1  0
 12 13  1  0
 12 14  1  0
 14 15  1  0
 15 16  1  0
 16 17  2  0
 16 18  1  0
 18 19  2  0
 19 20  1  0
 20 21  2  0
 21 22  1  0
  8  4  1  0
 22 18  1  0
  1 23  1  0
  1 24  1  0
  1 25  1  0
  2 26  1  0
  2 27  1  0
  3 28  1  0
  3 29  1  0
  6 30  1  0
  7 31  1  0
 11 32  1  0
 12 33  1  0
 13 34  1  0
 13 35  1  0
 13 36  1  0
 14 37  1  0
 14 38  1  0
 15 39  1  0
 19 40  1  0
 21 41  1  0
 22 42  1  0
M  END
>  <Energy>  (876) 
65.746517734193176

>  <compound_id>  (876) 
10054

>  <target_id>  (876) 
1

>  <reference_id>  (876) 
80

>  <inspiration_ids>  (876) 
[112, 80]

>  <energy_score>  (876) 
80.13710390435074

>  <distance_score>  (876) 
12.664248831799668

>  <path>  (876) 
/opt/xchem-fragalysis-2/maxwin/BulkDock/SCRATCH/511014/C10054-P80/C10054-P80.minimised.mol

>  <scratch_subdir>  (876) 
/opt/xchem-fragalysis-2/maxwin/BulkDock/SCRATCH/511014/C10054-P80

>  <fragmenstein_runtime>  (876) 
26.02582359313965

>  <fragmenstein_outcome>  (876) 
too moved

>  <fragmenstein_mode>  (876) 
expansion

>  <fragmenstein_error>  (876) 


$$$$
C10055-P112
     RDKit          3D

 40 41  0  0  0  0  0  0  0  0999 V2000
   -7.1453  -21.2603   12.4116 C   0  0  0  0  0  0  0  0  0  0  0  0
   -7.4127  -20.0223   11.7569 O   0  0  0  0  0  0  0  0  0  0  0  0
   -6.3242  -19.0900   11.8102 C   0  0  0  0  0  0  0  0  0  0  0  0
   -6.5344  -17.6768   12.5929 C   0  0  0  0  0  0  0  0  0  0  0  0
   -6.0059  -17.4347   13.9225 C   0  0  0  0  0  0  0  0  0  0  0  0
   -5.4024  -16.1957   13.8314 C   0  0  0  0  0  0  0  0  0  0  0  0
   -3.6104  -15.8911   14.1894 C   0  0  0  0  0  0  0  0  0  0  0  0
   -3.0113  -16.8744   14.6278 O   0  0  0  0  0  0  0  0  0  0  0  0
   -2.9217  -14.0496   13.6545 N   0  0  0  0  0  0  0  0  0  0  0  0
   -0.8715  -13.2670   13.5056 C   0  0  0  0  0  0  0  0  0  0  0  0
   -0.3851  -13.3107   11.8848 C   0  0  0  0  0  0  0  0  0  0  0  0
    0.9342  -11.9980   13.8503 C   0  0  0  0  0  0  0  0  0  0  0  0
    2.4616  -10.5729   13.5214 N   0  0  0  0  0  0  0  0  0  0  0  0
    3.0851   -8.9140   14.5459 C   0  0  0  0  0  0  0  0  0  0  0  0
    2.7448   -8.4493   15.6725 O   0  0  0  0  0  0  0  0  0  0  0  0
    4.2188   -7.6924   13.7148 C   0  0  0  0  0  0  0  0  0  0  0  0
    4.0859   -6.9478   12.4182 C   0  0  0  0  0  0  0  0  0  0  0  0
    3.9991   -5.5258   12.4162 N   0  0  0  0  0  0  0  0  0  0  0  0
    3.8450   -5.1708   13.6651 C   0  0  0  0  0  0  0  0  0  0  0  0
    4.1622   -6.2555   14.4857 N   0  0  0  0  0  0  0  0  0  0  0  0
   -6.1271  -15.6002   12.7503 N   0  0  0  0  0  0  0  0  0  0  0  0
   -6.8116  -16.4985   12.0219 N   0  0  0  0  0  0  0  0  0  0  0  0
   -8.0433  -21.8752   12.3773 H   0  0  0  0  0  0  0  0  0  0  0  0
   -7.0313  -21.1825   13.4685 H   0  0  0  0  0  0  0  0  0  0  0  0
   -6.2664  -21.7560   11.9969 H   0  0  0  0  0  0  0  0  0  0  0  0
   -6.0199  -18.8972   10.7785 H   0  0  0  0  0  0  0  0  0  0  0  0
   -5.4527  -19.5924   12.2444 H   0  0  0  0  0  0  0  0  0  0  0  0
   -5.3823  -18.1817   14.3673 H   0  0  0  0  0  0  0  0  0  0  0  0
   -3.6813  -13.5022   13.2489 H   0  0  0  0  0  0  0  0  0  0  0  0
   -0.4209  -14.1656   13.1775 H   0  0  0  0  0  0  0  0  0  0  0  0
   -0.8811  -14.1428   11.3644 H   0  0  0  0  0  0  0  0  0  0  0  0
   -0.5056  -12.3244   11.4360 H   0  0  0  0  0  0  0  0  0  0  0  0
    0.6824  -13.5626   11.8199 H   0  0  0  0  0  0  0  0  0  0  0  0
    0.7036  -11.7478   12.7879 H   0  0  0  0  0  0  0  0  0  0  0  0
    1.5396  -12.8271   13.7118 H   0  0  0  0  0  0  0  0  0  0  0  0
    2.8746  -10.5810   12.6241 H   0  0  0  0  0  0  0  0  0  0  0  0
    3.6975   -7.3891   11.4979 H   0  0  0  0  0  0  0  0  0  0  0  0
    3.5780   -4.1974   14.0561 H   0  0  0  0  0  0  0  0  0  0  0  0
    3.8408   -6.2618   15.4415 H   0  0  0  0  0  0  0  0  0  0  0  0
   -5.9060  -14.7104   12.3067 H   0  0  0  0  0  0  0  0  0  0  0  0
  1  2  1  0
  2  3  1  0
  3  4  1  0
  4  5  1  0
  5  6  2  0
  6  7  1  0
  7  8  2  0
  7  9  1  0
  9 10  1  0
 10 11  1  0
 10 12  1  0
 12 13  1  0
 13 14  1  0
 14 15  2  0
 14 16  1  0
 16 17  2  0
 17 18  1  0
 18 19  2  0
 19 20  1  0
  6 21  1  0
 21 22  1  0
 22  4  2  0
 20 16  1  0
  1 23  1  0
  1 24  1  0
  1 25  1  0
  3 26  1  0
  3 27  1  0
  5 28  1  0
  9 29  1  0
 10 30  1  0
 11 31  1  0
 11 32  1  0
 11 33  1  0
 12 34  1  0
 12 35  1  0
 13 36  1  0
 17 37  1  0
 19 38  1  0
 20 39  1  0
 21 40  1  0
M  END
>  <Energy>  (877) 
1080.6728316856488

>  <compound_id>  (877) 
10055

>  <target_id>  (877) 
1

>  <reference_id>  (877) 
112

>  <inspiration_ids>  (877) 
[112, 80]

>  <energy_score>  (877) 
1087.6793189600503

>  <distance_score>  (877) 
10.656838463106553

>  <path>  (877) 
/opt/xchem-fragalysis-2/maxwin/BulkDock/SCRATCH/511014/C10055-P112/C10055-P112.minimised.mol

>  <scratch_subdir>  (877) 
/opt/xchem-fragalysis-2/maxwin/BulkDock/SCRATCH/511014/C10055-P112

>  <fragmenstein_runtime>  (877) 
16.440478801727295

>  <fragmenstein_outcome>  (877) 
too moved

>  <fragmenstein_mode>  (877) 
expansion

>  <fragmenstein_error>  (877) 


$$$$
C10055-P80
     RDKit          3D

 40 41  0  0  0  0  0  0  0  0999 V2000
   -8.4702  -16.0622   14.0591 C   0  0  0  0  0  0  0  0  0  0  0  0
   -7.5510  -16.6086   14.9934 O   0  0  0  0  0  0  0  0  0  0  0  0
   -6.2716  -16.9015   14.4075 C   0  0  0  0  0  0  0  0  0  0  0  0
   -5.0763  -16.8368   15.4118 C   0  0  0  0  0  0  0  0  0  0  0  0
   -3.7001  -16.7333   15.1211 C   0  0  0  0  0  0  0  0  0  0  0  0
   -3.1679  -15.5482   15.7541 C   0  0  0  0  0  0  0  0  0  0  0  0
   -1.8493  -14.3676   15.6587 C   0  0  0  0  0  0  0  0  0  0  0  0
   -1.6950  -13.8261   16.7496 O   0  0  0  0  0  0  0  0  0  0  0  0
   -1.0132  -14.0113   13.9827 N   0  0  0  0  0  0  0  0  0  0  0  0
    0.1285  -12.7483   13.4490 C   0  0  0  0  0  0  0  0  0  0  0  0
    0.3081  -13.8212   12.2630 C   0  0  0  0  0  0  0  0  0  0  0  0
    0.1610  -11.5525   11.9332 C   0  0  0  0  0  0  0  0  0  0  0  0
    1.5218  -10.7379   11.3220 N   0  0  0  0  0  0  0  0  0  0  0  0
    1.6552   -9.7084   10.1548 C   0  0  0  0  0  0  0  0  0  0  0  0
    0.8339   -9.3152    9.3630 O   0  0  0  0  0  0  0  0  0  0  0  0
    2.8998   -8.9814    9.9778 C   0  0  0  0  0  0  0  0  0  0  0  0
    3.9478   -9.1765    9.0904 C   0  0  0  0  0  0  0  0  0  0  0  0
    4.7030   -8.0320    8.9229 N   0  0  0  0  0  0  0  0  0  0  0  0
    4.0667   -7.1026    9.5948 C   0  0  0  0  0  0  0  0  0  0  0  0
    3.0138   -7.6298   10.2852 N   0  0  0  0  0  0  0  0  0  0  0  0
   -3.9642  -15.9395   16.9176 N   0  0  0  0  0  0  0  0  0  0  0  0
   -5.1535  -16.5808   16.7141 N   0  0  0  0  0  0  0  0  0  0  0  0
   -9.4539  -16.0137   14.5337 H   0  0  0  0  0  0  0  0  0  0  0  0
   -8.5427  -16.6855   13.1631 H   0  0  0  0  0  0  0  0  0  0  0  0
   -8.1728  -15.0472   13.7799 H   0  0  0  0  0  0  0  0  0  0  0  0
   -6.2304  -17.8688   13.9255 H   0  0  0  0  0  0  0  0  0  0  0  0
   -6.1434  -16.2544   13.5330 H   0  0  0  0  0  0  0  0  0  0  0  0
   -3.1724  -17.4732   14.5578 H   0  0  0  0  0  0  0  0  0  0  0  0
   -1.2715  -14.6447   13.3264 H   0  0  0  0  0  0  0  0  0  0  0  0
   -0.6925  -12.1091   13.6483 H   0  0  0  0  0  0  0  0  0  0  0  0
    0.9636  -13.4636   11.5039 H   0  0  0  0  0  0  0  0  0  0  0  0
   -0.5899  -14.0485   11.6788 H   0  0  0  0  0  0  0  0  0  0  0  0
    0.6732  -14.7910   12.5813 H   0  0  0  0  0  0  0  0  0  0  0  0
   -0.5285  -10.7661   12.2071 H   0  0  0  0  0  0  0  0  0  0  0  0
   -0.3624  -11.9791   11.0999 H   0  0  0  0  0  0  0  0  0  0  0  0
    2.3869  -10.7703   11.8397 H   0  0  0  0  0  0  0  0  0  0  0  0
    4.1657  -10.0702    8.5209 H   0  0  0  0  0  0  0  0  0  0  0  0
    4.3119   -6.0507    9.6185 H   0  0  0  0  0  0  0  0  0  0  0  0
    2.3204   -7.1069   10.7990 H   0  0  0  0  0  0  0  0  0  0  0  0
   -3.6376  -15.9928   17.8567 H   0  0  0  0  0  0  0  0  0  0  0  0
  1  2  1  0
  2  3  1  0
  3  4  1  0
  4  5  1  0
  5  6  2  0
  6  7  1  0
  7  8  2  0
  7  9  1  0
  9 10  1  0
 10 11  1  0
 10 12  1  0
 12 13  1  0
 13 14  1  0
 14 15  2  0
 14 16  1  0
 16 17  2  0
 17 18  1  0
 18 19  2  0
 19 20  1  0
  6 21  1  0
 21 22  1  0
 22  4  2  0
 20 16  1  0
  1 23  1  0
  1 24  1  0
  1 25  1  0
  3 26  1  0
  3 27  1  0
  5 28  1  0
  9 29  1  0
 10 30  1  0
 11 31  1  0
 11 32  1  0
 11 33  1  0
 12 34  1  0
 12 35  1  0
 13 36  1  0
 17 37  1  0
 19 38  1  0
 20 39  1  0
 21 40  1  0
M  END
>  <Energy>  (878) 
361.74627896618256

>  <compound_id>  (878) 
10055

>  <target_id>  (878) 
1

>  <reference_id>  (878) 
80

>  <inspiration_ids>  (878) 
[112, 80]

>  <energy_score>  (878) 
368.752766240584

>  <distance_score>  (878) 
12.844814152043408

>  <path>  (878) 
/opt/xchem-fragalysis-2/maxwin/BulkDock/SCRATCH/511014/C10055-P80/C10055-P80.minimised.mol

>  <scratch_subdir>  (878) 
/opt/xchem-fragalysis-2/maxwin/BulkDock/SCRATCH/511014/C10055-P80

>  <fragmenstein_runtime>  (878) 
21.672006130218506

>  <fragmenstein_outcome>  (878) 
too moved

>  <fragmenstein_mode>  (878) 
expansion

>  <fragmenstein_error>  (878) 


$$$$
C10056-P112
     RDKit          3D

 36 37  0  0  0  0  0  0  0  0999 V2000
    0.8339  -17.6286   11.7073 C   0  0  0  0  0  0  0  0  0  0  0  0
    1.4146  -17.1093   10.6034 N   0  0  0  0  0  0  0  0  0  0  0  0
    1.0096  -15.5059   11.4872 C   0  0  0  0  0  0  0  0  0  0  0  0
    1.2480  -13.9739   12.7941 C   0  0  0  0  0  0  0  0  0  0  0  0
    2.1071  -12.7571   14.2036 N   0  0  0  0  0  0  0  0  0  0  0  0
    4.1287  -12.2115   14.5363 C   0  0  0  0  0  0  0  0  0  0  0  0
    5.1730  -12.6338   14.0238 O   0  0  0  0  0  0  0  0  0  0  0  0
    4.2544  -11.1549   15.2996 C   0  0  0  0  0  0  0  0  0  0  0  0
    5.3346  -10.6190   14.1855 C   0  0  0  0  0  0  0  0  0  0  0  0
    5.4388   -9.3682   14.0877 N   0  0  0  0  0  0  0  0  0  0  0  0
    4.3007   -9.0929   13.7348 C   0  0  0  0  0  0  0  0  0  0  0  0
    3.6439  -10.1609   14.2160 N   0  0  0  0  0  0  0  0  0  0  0  0
    0.9645  -17.0703    9.2643 C   0  0  0  0  0  0  0  0  0  0  0  0
   -0.0802  -17.4016    8.7876 O   0  0  0  0  0  0  0  0  0  0  0  0
    1.8549  -16.7075    8.2490 C   0  0  0  0  0  0  0  0  0  0  0  0
    1.3108  -16.6747    6.9670 N   0  0  0  0  0  0  0  0  0  0  0  0
    2.0921  -17.2051    6.0286 N   0  0  0  0  0  0  0  0  0  0  0  0
    3.1444  -17.6493    6.7156 C   0  0  0  0  0  0  0  0  0  0  0  0
    3.0769  -17.3670    8.0993 C   0  0  0  0  0  0  0  0  0  0  0  0
    4.0174  -17.8935    9.1206 C   0  0  0  0  0  0  0  0  0  0  0  0
    4.2778  -17.0282   10.1360 F   0  0  0  0  0  0  0  0  0  0  0  0
    3.5465  -19.0355    9.6900 F   0  0  0  0  0  0  0  0  0  0  0  0
    5.2280  -18.2268    8.5866 F   0  0  0  0  0  0  0  0  0  0  0  0
    0.6890  -18.6289   11.2499 H   0  0  0  0  0  0  0  0  0  0  0  0
   -0.1916  -17.3794   11.6071 H   0  0  0  0  0  0  0  0  0  0  0  0
    1.3311  -18.2640   12.4525 H   0  0  0  0  0  0  0  0  0  0  0  0
    1.6387  -15.1043   10.7446 H   0  0  0  0  0  0  0  0  0  0  0  0
   -0.0378  -15.3451   11.1928 H   0  0  0  0  0  0  0  0  0  0  0  0
    1.0634  -13.2446   11.9842 H   0  0  0  0  0  0  0  0  0  0  0  0
    0.1995  -13.8067   13.0863 H   0  0  0  0  0  0  0  0  0  0  0  0
    1.4801  -12.2977   14.8261 H   0  0  0  0  0  0  0  0  0  0  0  0
    6.1250  -11.1286   13.6231 H   0  0  0  0  0  0  0  0  0  0  0  0
    4.0596   -8.1013   13.3646 H   0  0  0  0  0  0  0  0  0  0  0  0
    2.7846  -10.3356   13.7408 H   0  0  0  0  0  0  0  0  0  0  0  0
    0.3346  -16.5105    6.7418 H   0  0  0  0  0  0  0  0  0  0  0  0
    3.9282  -18.1774    6.1853 H   0  0  0  0  0  0  0  0  0  0  0  0
  1  2  1  0
  2  3  1  0
  3  4  1  0
  4  5  1  0
  5  6  1  0
  6  7  2  0
  6  8  1  0
  8  9  2  0
  9 10  1  0
 10 11  2  0
 11 12  1  0
  2 13  1  0
 13 14  2  0
 13 15  1  0
 15 16  1  0
 16 17  1  0
 17 18  2  0
 18 19  1  0
 19 20  1  0
 20 21  1  0
 20 22  1  0
 20 23  1  0
 12  8  1  0
 19 15  2  0
  1 24  1  0
  1 25  1  0
  1 26  1  0
  3 27  1  0
  3 28  1  0
  4 29  1  0
  4 30  1  0
  5 31  1  0
  9 32  1  0
 11 33  1  0
 12 34  1  0
 16 35  1  0
 18 36  1  0
M  END
>  <Energy>  (879) 
827.71679803125039

>  <compound_id>  (879) 
10056

>  <target_id>  (879) 
1

>  <reference_id>  (879) 
112

>  <inspiration_ids>  (879) 
[112, 80]

>  <energy_score>  (879) 
839.9549473000552

>  <distance_score>  (879) 
14.563970415305885

>  <path>  (879) 
/opt/xchem-fragalysis-2/maxwin/BulkDock/SCRATCH/511014/C10056-P112/C10056-P112.minimised.mol

>  <scratch_subdir>  (879) 
/opt/xchem-fragalysis-2/maxwin/BulkDock/SCRATCH/511014/C10056-P112

>  <fragmenstein_runtime>  (879) 
11.361279964447021

>  <fragmenstein_outcome>  (879) 
too moved

>  <fragmenstein_mode>  (879) 
expansion

>  <fragmenstein_error>  (879) 


$$$$
C10056-P80
     RDKit          3D

 36 37  0  0  0  0  0  0  0  0999 V2000
   -2.6212  -14.6920   10.2442 C   0  0  0  0  0  0  0  0  0  0  0  0
   -2.6625  -15.2505   11.5009 N   0  0  0  0  0  0  0  0  0  0  0  0
   -0.9859  -14.1912   11.5625 C   0  0  0  0  0  0  0  0  0  0  0  0
   -0.1621  -12.3563   11.5215 C   0  0  0  0  0  0  0  0  0  0  0  0
    1.0815  -11.5529   12.3915 N   0  0  0  0  0  0  0  0  0  0  0  0
    2.5994  -10.7850   11.8466 C   0  0  0  0  0  0  0  0  0  0  0  0
    2.9368  -10.6429   10.6889 O   0  0  0  0  0  0  0  0  0  0  0  0
    3.8204  -10.1029   13.2481 C   0  0  0  0  0  0  0  0  0  0  0  0
    4.0780   -8.4226   13.2531 C   0  0  0  0  0  0  0  0  0  0  0  0
    5.0378   -7.5791   13.6547 N   0  0  0  0  0  0  0  0  0  0  0  0
    5.8692   -8.4838   14.0048 C   0  0  0  0  0  0  0  0  0  0  0  0
    5.1138  -10.1450   13.9600 N   0  0  0  0  0  0  0  0  0  0  0  0
   -3.8901  -15.0127   12.8897 C   0  0  0  0  0  0  0  0  0  0  0  0
   -4.7948  -14.2171   12.8942 O   0  0  0  0  0  0  0  0  0  0  0  0
   -4.0056  -16.1795   14.5001 C   0  0  0  0  0  0  0  0  0  0  0  0
   -3.5365  -17.3262   15.1412 N   0  0  0  0  0  0  0  0  0  0  0  0
   -4.2428  -17.7100   16.2590 N   0  0  0  0  0  0  0  0  0  0  0  0
   -5.4718  -17.2957   16.0282 C   0  0  0  0  0  0  0  0  0  0  0  0
   -5.5099  -16.7225   14.7713 C   0  0  0  0  0  0  0  0  0  0  0  0
   -6.7503  -16.6212   13.8578 C   0  0  0  0  0  0  0  0  0  0  0  0
   -7.0290  -15.4774   13.1787 F   0  0  0  0  0  0  0  0  0  0  0  0
   -7.8783  -16.8877   14.5655 F   0  0  0  0  0  0  0  0  0  0  0  0
   -6.6277  -17.5347   12.8653 F   0  0  0  0  0  0  0  0  0  0  0  0
   -3.4694  -15.3568    9.9321 H   0  0  0  0  0  0  0  0  0  0  0  0
   -1.9601  -15.3864    9.7575 H   0  0  0  0  0  0  0  0  0  0  0  0
   -3.1722  -14.0450    9.5585 H   0  0  0  0  0  0  0  0  0  0  0  0
   -0.5222  -14.4585   12.5280 H   0  0  0  0  0  0  0  0  0  0  0  0
   -0.3388  -14.8311   10.9510 H   0  0  0  0  0  0  0  0  0  0  0  0
   -0.6641  -12.0996   12.4379 H   0  0  0  0  0  0  0  0  0  0  0  0
   -0.6028  -11.6225   10.8631 H   0  0  0  0  0  0  0  0  0  0  0  0
    1.0889  -11.6250   13.3810 H   0  0  0  0  0  0  0  0  0  0  0  0
    3.5785   -7.9529   12.3620 H   0  0  0  0  0  0  0  0  0  0  0  0
    6.9730   -8.4706   13.9962 H   0  0  0  0  0  0  0  0  0  0  0  0
    5.7860  -10.9028   13.9072 H   0  0  0  0  0  0  0  0  0  0  0  0
   -2.5880  -17.6697   15.1017 H   0  0  0  0  0  0  0  0  0  0  0  0
   -6.2668  -17.5550   16.7135 H   0  0  0  0  0  0  0  0  0  0  0  0
  1  2  1  0
  2  3  1  0
  3  4  1  0
  4  5  1  0
  5  6  1  0
  6  7  2  0
  6  8  1  0
  8  9  2  0
  9 10  1  0
 10 11  2  0
 11 12  1  0
  2 13  1  0
 13 14  2  0
 13 15  1  0
 15 16  1  0
 16 17  1  0
 17 18  2  0
 18 19  1  0
 19 20  1  0
 20 21  1  0
 20 22  1  0
 20 23  1  0
 12  8  1  0
 19 15  2  0
  1 24  1  0
  1 25  1  0
  1 26  1  0
  3 27  1  0
  3 28  1  0
  4 29  1  0
  4 30  1  0
  5 31  1  0
  9 32  1  0
 11 33  1  0
 12 34  1  0
 16 35  1  0
 18 36  1  0
M  END
>  <Energy>  (880) 
738.3047726113216

>  <compound_id>  (880) 
10056

>  <target_id>  (880) 
1

>  <reference_id>  (880) 
80

>  <inspiration_ids>  (880) 
[112, 80]

>  <energy_score>  (880) 
750.5429218801211

>  <distance_score>  (880) 
11.398905348320143

>  <path>  (880) 
/opt/xchem-fragalysis-2/maxwin/BulkDock/SCRATCH/511014/C10056-P80/C10056-P80.minimised.mol

>  <scratch_subdir>  (880) 
/opt/xchem-fragalysis-2/maxwin/BulkDock/SCRATCH/511014/C10056-P80

>  <fragmenstein_runtime>  (880) 
16.55855703353882

>  <fragmenstein_outcome>  (880) 
too moved

>  <fragmenstein_mode>  (880) 
expansion

>  <fragmenstein_error>  (880) 


$$$$
C10057-P112
     RDKit          3D

 39 40  0  0  0  0  0  0  0  0999 V2000
    4.6584  -14.5802    7.9444 C   0  0  0  0  0  0  0  0  0  0  0  0
    4.1659  -13.1824    7.9239 N   0  0  0  0  0  0  0  0  0  0  0  0
    3.3310  -13.7340    6.7316 C   0  0  0  0  0  0  0  0  0  0  0  0
    2.0986  -14.8440    6.8683 C   0  0  0  0  0  0  0  0  0  0  0  0
    1.9235  -16.3383    6.3358 N   0  0  0  0  0  0  0  0  0  0  0  0
    2.7993  -15.8388    5.2787 C   0  0  0  0  0  0  0  0  0  0  0  0
    2.1732  -17.2775    7.3975 C   0  0  0  0  0  0  0  0  0  0  0  0
    3.1929  -17.8186    7.7361 O   0  0  0  0  0  0  0  0  0  0  0  0
    0.8791  -17.6837    8.0993 C   0  0  0  0  0  0  0  0  0  0  0  0
   -0.4010  -17.9425    7.4983 C   0  0  0  0  0  0  0  0  0  0  0  0
   -1.2016  -18.4705    8.4872 C   0  0  0  0  0  0  0  0  0  0  0  0
   -0.4176  -18.5200    9.6020 N   0  0  0  0  0  0  0  0  0  0  0  0
    0.8191  -18.0226    9.4053 N   0  0  0  0  0  0  0  0  0  0  0  0
    4.8372  -11.9440    7.5410 C   0  0  0  0  0  0  0  0  0  0  0  0
    5.9311  -11.7617    7.0605 O   0  0  0  0  0  0  0  0  0  0  0  0
    3.9907  -10.6915    7.9361 C   0  0  0  0  0  0  0  0  0  0  0  0
    4.8120   -9.4860    8.4217 C   0  0  0  0  0  0  0  0  0  0  0  0
    4.5383   -8.4954    9.3540 C   0  0  0  0  0  0  0  0  0  0  0  0
    5.5889   -7.6169    9.4892 N   0  0  0  0  0  0  0  0  0  0  0  0
    6.5088   -8.0498    8.6609 C   0  0  0  0  0  0  0  0  0  0  0  0
    6.0849   -9.1632    7.9860 N   0  0  0  0  0  0  0  0  0  0  0  0
    5.4629  -14.5424    8.6944 H   0  0  0  0  0  0  0  0  0  0  0  0
    5.2096  -14.9068    7.0515 H   0  0  0  0  0  0  0  0  0  0  0  0
    3.9607  -15.3039    8.3700 H   0  0  0  0  0  0  0  0  0  0  0  0
    2.7481  -12.8320    6.4759 H   0  0  0  0  0  0  0  0  0  0  0  0
    3.9615  -13.8137    5.8309 H   0  0  0  0  0  0  0  0  0  0  0  0
    1.9269  -14.9338    7.9408 H   0  0  0  0  0  0  0  0  0  0  0  0
    1.2085  -14.3412    6.4568 H   0  0  0  0  0  0  0  0  0  0  0  0
    2.7770  -16.6587    4.5438 H   0  0  0  0  0  0  0  0  0  0  0  0
    3.8575  -15.8420    5.5579 H   0  0  0  0  0  0  0  0  0  0  0  0
    2.4233  -14.9915    4.6867 H   0  0  0  0  0  0  0  0  0  0  0  0
   -0.6618  -17.8005    6.4591 H   0  0  0  0  0  0  0  0  0  0  0  0
   -2.2202  -18.8308    8.4950 H   0  0  0  0  0  0  0  0  0  0  0  0
   -0.6656  -18.8531   10.5349 H   0  0  0  0  0  0  0  0  0  0  0  0
    3.2892  -10.9719    8.7297 H   0  0  0  0  0  0  0  0  0  0  0  0
    3.4134  -10.3905    7.0549 H   0  0  0  0  0  0  0  0  0  0  0  0
    3.6382   -8.3779    9.9454 H   0  0  0  0  0  0  0  0  0  0  0  0
    7.4872   -7.6143    8.5082 H   0  0  0  0  0  0  0  0  0  0  0  0
    6.6272   -9.7140    7.3302 H   0  0  0  0  0  0  0  0  0  0  0  0
  1  2  1  0
  2  3  1  0
  3  4  1  0
  4  5  1  0
  5  6  1  0
  5  7  1  0
  7  8  2  0
  7  9  1  0
  9 10  1  0
 10 11  2  0
 11 12  1  0
 12 13  1  0
  2 14  1  0
 14 15  2  0
 14 16  1  0
 16 17  1  0
 17 18  2  0
 18 19  1  0
 19 20  2  0
 20 21  1  0
 13  9  2  0
 21 17  1  0
  1 22  1  0
  1 23  1  0
  1 24  1  0
  3 25  1  0
  3 26  1  0
  4 27  1  0
  4 28  1  0
  6 29  1  0
  6 30  1  0
  6 31  1  0
 10 32  1  0
 11 33  1  0
 12 34  1  0
 16 35  1  0
 16 36  1  0
 18 37  1  0
 20 38  1  0
 21 39  1  0
M  END
>  <Energy>  (881) 
234.723350767912

>  <compound_id>  (881) 
10057

>  <target_id>  (881) 
1

>  <reference_id>  (881) 
112

>  <inspiration_ids>  (881) 
[112, 80]

>  <energy_score>  (881) 
138.8939011802023

>  <distance_score>  (881) 
13.883542721012603

>  <path>  (881) 
/opt/xchem-fragalysis-2/maxwin/BulkDock/SCRATCH/511014/C10057-P112/C10057-P112.minimised.mol

>  <scratch_subdir>  (881) 
/opt/xchem-fragalysis-2/maxwin/BulkDock/SCRATCH/511014/C10057-P112

>  <fragmenstein_runtime>  (881) 
20.793837308883667

>  <fragmenstein_outcome>  (881) 
too moved

>  <fragmenstein_mode>  (881) 
expansion

>  <fragmenstein_error>  (881) 


$$$$
C10057-P80
     RDKit          3D

 39 40  0  0  0  0  0  0  0  0999 V2000
    7.4204  -16.5471    7.6338 C   0  0  0  0  0  0  0  0  0  0  0  0
    7.2068  -15.1008    7.6276 N   0  0  0  0  0  0  0  0  0  0  0  0
    5.8218  -15.5394    8.3610 C   0  0  0  0  0  0  0  0  0  0  0  0
    4.8651  -16.9144    8.0923 C   0  0  0  0  0  0  0  0  0  0  0  0
    3.5447  -17.0548    7.2727 N   0  0  0  0  0  0  0  0  0  0  0  0
    4.3783  -16.4333    6.2321 C   0  0  0  0  0  0  0  0  0  0  0  0
    2.4411  -16.5359    8.0180 C   0  0  0  0  0  0  0  0  0  0  0  0
    1.9755  -15.4341    8.0461 O   0  0  0  0  0  0  0  0  0  0  0  0
    1.6964  -17.6270    8.8219 C   0  0  0  0  0  0  0  0  0  0  0  0
    1.7963  -19.0525    8.7155 C   0  0  0  0  0  0  0  0  0  0  0  0
    0.7825  -19.5832    9.4845 C   0  0  0  0  0  0  0  0  0  0  0  0
    0.1341  -18.5177   10.0302 N   0  0  0  0  0  0  0  0  0  0  0  0
    0.6648  -17.3333    9.6570 N   0  0  0  0  0  0  0  0  0  0  0  0
    7.8657  -14.0432    8.3830 C   0  0  0  0  0  0  0  0  0  0  0  0
    8.6845  -14.1088    9.2635 O   0  0  0  0  0  0  0  0  0  0  0  0
    7.4941  -12.6056    7.8588 C   0  0  0  0  0  0  0  0  0  0  0  0
    8.2896  -11.4366    8.5189 C   0  0  0  0  0  0  0  0  0  0  0  0
    9.4795  -11.3565    9.2321 C   0  0  0  0  0  0  0  0  0  0  0  0
    9.7371  -10.0800    9.6788 N   0  0  0  0  0  0  0  0  0  0  0  0
    8.7361   -9.3582    9.2396 C   0  0  0  0  0  0  0  0  0  0  0  0
    7.8511  -10.1208    8.5229 N   0  0  0  0  0  0  0  0  0  0  0  0
    6.9699  -17.0588    6.7850 H   0  0  0  0  0  0  0  0  0  0  0  0
    7.4072  -17.0529    8.6108 H   0  0  0  0  0  0  0  0  0  0  0  0
    8.4919  -16.6257    7.3880 H   0  0  0  0  0  0  0  0  0  0  0  0
    6.0615  -15.5413    9.4341 H   0  0  0  0  0  0  0  0  0  0  0  0
    5.1712  -14.6597    8.2546 H   0  0  0  0  0  0  0  0  0  0  0  0
    5.4474  -17.8262    7.8929 H   0  0  0  0  0  0  0  0  0  0  0  0
    4.5136  -17.1071    9.1200 H   0  0  0  0  0  0  0  0  0  0  0  0
    4.5840  -15.3655    6.3566 H   0  0  0  0  0  0  0  0  0  0  0  0
    5.1919  -17.0610    5.8541 H   0  0  0  0  0  0  0  0  0  0  0  0
    3.6920  -16.4080    5.3706 H   0  0  0  0  0  0  0  0  0  0  0  0
    2.4878  -19.6071    8.0981 H   0  0  0  0  0  0  0  0  0  0  0  0
    0.4633  -20.5998    9.6676 H   0  0  0  0  0  0  0  0  0  0  0  0
   -0.6709  -18.5244   10.6587 H   0  0  0  0  0  0  0  0  0  0  0  0
    6.4204  -12.4473    7.9999 H   0  0  0  0  0  0  0  0  0  0  0  0
    7.7083  -12.5817    6.7838 H   0  0  0  0  0  0  0  0  0  0  0  0
   10.1606  -12.1647    9.4688 H   0  0  0  0  0  0  0  0  0  0  0  0
    8.5992   -8.2965    9.4000 H   0  0  0  0  0  0  0  0  0  0  0  0
    6.9978   -9.7796    8.1041 H   0  0  0  0  0  0  0  0  0  0  0  0
  1  2  1  0
  2  3  1  0
  3  4  1  0
  4  5  1  0
  5  6  1  0
  5  7  1  0
  7  8  2  0
  7  9  1  0
  9 10  1  0
 10 11  2  0
 11 12  1  0
 12 13  1  0
  2 14  1  0
 14 15  2  0
 14 16  1  0
 16 17  1  0
 17 18  2  0
 18 19  1  0
 19 20  2  0
 20 21  1  0
 13  9  2  0
 21 17  1  0
  1 22  1  0
  1 23  1  0
  1 24  1  0
  3 25  1  0
  3 26  1  0
  4 27  1  0
  4 28  1  0
  6 29  1  0
  6 30  1  0
  6 31  1  0
 10 32  1  0
 11 33  1  0
 12 34  1  0
 16 35  1  0
 16 36  1  0
 18 37  1  0
 20 38  1  0
 21 39  1  0
M  END
>  <Energy>  (882) 
245.8706703074341

>  <compound_id>  (882) 
10057

>  <target_id>  (882) 
1

>  <reference_id>  (882) 
80

>  <inspiration_ids>  (882) 
[112, 80]

>  <energy_score>  (882) 
150.04122071973376

>  <distance_score>  (882) 
13.991323219172289

>  <path>  (882) 
/opt/xchem-fragalysis-2/maxwin/BulkDock/SCRATCH/511014/C10057-P80/C10057-P80.minimised.mol

>  <scratch_subdir>  (882) 
/opt/xchem-fragalysis-2/maxwin/BulkDock/SCRATCH/511014/C10057-P80

>  <fragmenstein_runtime>  (882) 
27.05075979232788

>  <fragmenstein_outcome>  (882) 
too moved

>  <fragmenstein_mode>  (882) 
expansion

>  <fragmenstein_error>  (882) 


$$$$
C10060-P112
     RDKit          3D

 46 48  0  0  0  0  0  0  0  0999 V2000
   -1.4396  -15.5391   10.7338 C   0  0  0  0  0  0  0  0  0  0  0  0
   -2.4610  -14.6279   11.4672 C   0  0  0  0  0  0  0  0  0  0  0  0
   -0.6977  -13.5793   11.8582 C   0  0  0  0  0  0  0  0  0  0  0  0
   -0.1291  -11.8281   11.7822 N   0  0  0  0  0  0  0  0  0  0  0  0
    1.3560  -11.1365   11.2224 C   0  0  0  0  0  0  0  0  0  0  0  0
    2.2630  -11.7471   10.6882 O   0  0  0  0  0  0  0  0  0  0  0  0
    1.7382   -9.6440   11.3256 C   0  0  0  0  0  0  0  0  0  0  0  0
    1.5468   -8.3179   11.7397 C   0  0  0  0  0  0  0  0  0  0  0  0
    2.5950   -7.4400   11.5030 N   0  0  0  0  0  0  0  0  0  0  0  0
    3.5009   -8.1664   10.9232 C   0  0  0  0  0  0  0  0  0  0  0  0
    3.0426   -9.4302   10.7620 N   0  0  0  0  0  0  0  0  0  0  0  0
   -4.2934  -14.7098   12.5460 C   0  0  0  0  0  0  0  0  0  0  0  0
   -5.6716  -16.0806   11.9549 N   0  0  0  0  0  0  0  0  0  0  0  0
   -6.1884  -17.7485   12.7053 C   0  0  0  0  0  0  0  0  0  0  0  0
   -5.7216  -18.0074   13.7435 O   0  0  0  0  0  0  0  0  0  0  0  0
   -7.2073  -19.3244   12.0452 C   0  0  0  0  0  0  0  0  0  0  0  0
   -6.6310  -20.8417   12.5151 N   0  0  0  0  0  0  0  0  0  0  0  0
   -5.4259  -21.2301   11.9785 C   0  0  0  0  0  0  0  0  0  0  0  0
   -5.5579  -22.5371   11.5402 C   0  0  0  0  0  0  0  0  0  0  0  0
   -6.7134  -22.9636   12.2008 C   0  0  0  0  0  0  0  0  0  0  0  0
   -7.4213  -21.9504   12.7390 N   0  0  0  0  0  0  0  0  0  0  0  0
   -7.1235  -19.7001   10.6655 C   0  0  0  0  0  0  0  0  0  0  0  0
   -8.5927  -20.1938   10.6668 C   0  0  0  0  0  0  0  0  0  0  0  0
   -8.8452  -19.5617   11.9752 C   0  0  0  0  0  0  0  0  0  0  0  0
   -0.7502  -16.2544   11.2122 H   0  0  0  0  0  0  0  0  0  0  0  0
   -1.9359  -15.9546    9.8367 H   0  0  0  0  0  0  0  0  0  0  0  0
   -0.5533  -15.0787   10.4560 H   0  0  0  0  0  0  0  0  0  0  0  0
   -2.9418  -14.5353   10.4810 H   0  0  0  0  0  0  0  0  0  0  0  0
    0.2267  -14.1187   11.6289 H   0  0  0  0  0  0  0  0  0  0  0  0
   -0.5695  -13.6721   12.9407 H   0  0  0  0  0  0  0  0  0  0  0  0
   -0.6652  -11.1184   12.2570 H   0  0  0  0  0  0  0  0  0  0  0  0
    0.7439   -7.8851   12.3199 H   0  0  0  0  0  0  0  0  0  0  0  0
    4.4789   -7.8425   10.5942 H   0  0  0  0  0  0  0  0  0  0  0  0
    3.5560  -10.1985   10.3501 H   0  0  0  0  0  0  0  0  0  0  0  0
   -4.0325  -15.2838   13.3712 H   0  0  0  0  0  0  0  0  0  0  0  0
   -4.8639  -13.8827   12.8486 H   0  0  0  0  0  0  0  0  0  0  0  0
   -6.0742  -16.0095   11.0196 H   0  0  0  0  0  0  0  0  0  0  0  0
   -4.6660  -20.4684   11.9207 H   0  0  0  0  0  0  0  0  0  0  0  0
   -4.8615  -23.1666   11.0169 H   0  0  0  0  0  0  0  0  0  0  0  0
   -7.1016  -23.9748   12.1844 H   0  0  0  0  0  0  0  0  0  0  0  0
   -6.8030  -18.9217    9.9991 H   0  0  0  0  0  0  0  0  0  0  0  0
   -6.2903  -20.3541   10.4741 H   0  0  0  0  0  0  0  0  0  0  0  0
   -8.9171  -21.1427   11.0508 H   0  0  0  0  0  0  0  0  0  0  0  0
   -9.1994  -20.1096    9.7601 H   0  0  0  0  0  0  0  0  0  0  0  0
   -9.3277  -18.6281   12.2192 H   0  0  0  0  0  0  0  0  0  0  0  0
   -9.5017  -20.2963   12.4666 H   0  0  0  0  0  0  0  0  0  0  0  0
  1  2  1  0
  2  3  1  0
  3  4  1  0
  4  5  1  0
  5  6  2  0
  5  7  1  0
  7  8  2  0
  8  9  1  0
  9 10  2  0
 10 11  1  0
  2 12  1  0
 12 13  1  0
 13 14  1  0
 14 15  2  0
 14 16  1  0
 16 17  1  0
 17 18  1  0
 18 19  2  0
 19 20  1  0
 20 21  2  0
 16 22  1  0
 22 23  1  0
 23 24  1  0
 11  7  1  0
 24 16  1  0
 21 17  1  0
  1 25  1  0
  1 26  1  0
  1 27  1  0
  2 28  1  0
  3 29  1  0
  3 30  1  0
  4 31  1  0
  8 32  1  0
 10 33  1  0
 11 34  1  0
 12 35  1  0
 12 36  1  0
 13 37  1  0
 18 38  1  0
 19 39  1  0
 20 40  1  0
 22 41  1  0
 22 42  1  0
 23 43  1  0
 23 44  1  0
 24 45  1  0
 24 46  1  0
M  END
>  <Energy>  (883) 
654.87024693826174

>  <compound_id>  (883) 
10060

>  <target_id>  (883) 
1

>  <reference_id>  (883) 
112

>  <inspiration_ids>  (883) 
[112, 80]

>  <energy_score>  (883) 
649.05628711641

>  <distance_score>  (883) 
9.735198450015215

>  <path>  (883) 
/opt/xchem-fragalysis-2/maxwin/BulkDock/SCRATCH/511014/C10060-P112/C10060-P112.minimised.mol

>  <scratch_subdir>  (883) 
/opt/xchem-fragalysis-2/maxwin/BulkDock/SCRATCH/511014/C10060-P112

>  <fragmenstein_runtime>  (883) 
20.0406711101532

>  <fragmenstein_outcome>  (883) 
too moved

>  <fragmenstein_mode>  (883) 
expansion

>  <fragmenstein_error>  (883) 


$$$$
C10060-P80
     RDKit          3D

 46 48  0  0  0  0  0  0  0  0999 V2000
    0.1636  -14.9788   12.6545 C   0  0  0  0  0  0  0  0  0  0  0  0
   -1.0017  -14.1700   13.8984 C   0  0  0  0  0  0  0  0  0  0  0  0
   -0.1679  -12.4940   13.2190 C   0  0  0  0  0  0  0  0  0  0  0  0
    0.5654  -11.5318   11.9141 N   0  0  0  0  0  0  0  0  0  0  0  0
    1.8379  -10.5868   11.9159 C   0  0  0  0  0  0  0  0  0  0  0  0
    2.6400  -10.3760   12.7899 O   0  0  0  0  0  0  0  0  0  0  0  0
    2.2051   -9.8154   10.7095 C   0  0  0  0  0  0  0  0  0  0  0  0
    3.5319   -9.3657   10.5358 C   0  0  0  0  0  0  0  0  0  0  0  0
    3.6664   -8.4182    9.5635 N   0  0  0  0  0  0  0  0  0  0  0  0
    2.4512   -8.2654    9.1121 C   0  0  0  0  0  0  0  0  0  0  0  0
    1.5620   -9.1033    9.7378 N   0  0  0  0  0  0  0  0  0  0  0  0
   -2.7494  -15.2060   14.8761 C   0  0  0  0  0  0  0  0  0  0  0  0
   -3.7633  -16.9853   14.3258 N   0  0  0  0  0  0  0  0  0  0  0  0
   -5.7003  -17.4046   13.7721 C   0  0  0  0  0  0  0  0  0  0  0  0
   -6.4407  -16.4722   13.8768 O   0  0  0  0  0  0  0  0  0  0  0  0
   -6.5673  -19.3152   12.7629 C   0  0  0  0  0  0  0  0  0  0  0  0
   -7.1571  -21.2403   13.1381 N   0  0  0  0  0  0  0  0  0  0  0  0
   -8.2242  -22.2330   12.3313 C   0  0  0  0  0  0  0  0  0  0  0  0
   -9.4018  -22.5627   12.9435 C   0  0  0  0  0  0  0  0  0  0  0  0
   -9.0780  -22.3338   14.2385 C   0  0  0  0  0  0  0  0  0  0  0  0
   -7.8323  -21.8635   14.4108 N   0  0  0  0  0  0  0  0  0  0  0  0
   -6.9726  -19.1336   11.3719 C   0  0  0  0  0  0  0  0  0  0  0  0
   -8.3088  -19.9151   10.9742 C   0  0  0  0  0  0  0  0  0  0  0  0
   -8.6404  -19.3636   12.2130 C   0  0  0  0  0  0  0  0  0  0  0  0
    0.4645  -16.0175   12.6460 H   0  0  0  0  0  0  0  0  0  0  0  0
   -0.2043  -14.9096   11.5960 H   0  0  0  0  0  0  0  0  0  0  0  0
    1.0161  -14.3301   12.6398 H   0  0  0  0  0  0  0  0  0  0  0  0
   -1.0763  -14.2430   12.8030 H   0  0  0  0  0  0  0  0  0  0  0  0
   -0.8043  -11.7302   13.5772 H   0  0  0  0  0  0  0  0  0  0  0  0
   -0.5096  -12.8257   12.2411 H   0  0  0  0  0  0  0  0  0  0  0  0
    0.0643  -11.4141   11.0544 H   0  0  0  0  0  0  0  0  0  0  0  0
    4.3863   -9.6557   11.1384 H   0  0  0  0  0  0  0  0  0  0  0  0
    2.1456   -7.5805    8.3319 H   0  0  0  0  0  0  0  0  0  0  0  0
    0.5816   -9.1227    9.5258 H   0  0  0  0  0  0  0  0  0  0  0  0
   -2.0997  -15.4198   15.6530 H   0  0  0  0  0  0  0  0  0  0  0  0
   -3.1959  -14.6911   15.7588 H   0  0  0  0  0  0  0  0  0  0  0  0
   -3.2204  -17.8530   14.2908 H   0  0  0  0  0  0  0  0  0  0  0  0
   -7.9346  -22.6146   11.3992 H   0  0  0  0  0  0  0  0  0  0  0  0
  -10.2502  -23.0832   12.5296 H   0  0  0  0  0  0  0  0  0  0  0  0
   -9.6363  -22.5693   15.1246 H   0  0  0  0  0  0  0  0  0  0  0  0
   -6.8817  -18.4841   10.5397 H   0  0  0  0  0  0  0  0  0  0  0  0
   -6.8675  -18.0755   11.8031 H   0  0  0  0  0  0  0  0  0  0  0  0
   -8.6077  -20.9377   10.8902 H   0  0  0  0  0  0  0  0  0  0  0  0
   -8.9001  -19.7576   10.0752 H   0  0  0  0  0  0  0  0  0  0  0  0
   -9.5052  -20.0643   12.3954 H   0  0  0  0  0  0  0  0  0  0  0  0
   -9.3636  -18.5070   12.3730 H   0  0  0  0  0  0  0  0  0  0  0  0
  1  2  1  0
  2  3  1  0
  3  4  1  0
  4  5  1  0
  5  6  2  0
  5  7  1  0
  7  8  2  0
  8  9  1  0
  9 10  2  0
 10 11  1  0
  2 12  1  0
 12 13  1  0
 13 14  1  0
 14 15  2  0
 14 16  1  0
 16 17  1  0
 17 18  1  0
 18 19  2  0
 19 20  1  0
 20 21  2  0
 16 22  1  0
 22 23  1  0
 23 24  1  0
 11  7  1  0
 24 16  1  0
 21 17  1  0
  1 25  1  0
  1 26  1  0
  1 27  1  0
  2 28  1  0
  3 29  1  0
  3 30  1  0
  4 31  1  0
  8 32  1  0
 10 33  1  0
 11 34  1  0
 12 35  1  0
 12 36  1  0
 13 37  1  0
 18 38  1  0
 19 39  1  0
 20 40  1  0
 22 41  1  0
 22 42  1  0
 23 43  1  0
 23 44  1  0
 24 45  1  0
 24 46  1  0
M  END
>  <Energy>  (884) 
1374.2062326829594

>  <compound_id>  (884) 
10060

>  <target_id>  (884) 
1

>  <reference_id>  (884) 
80

>  <inspiration_ids>  (884) 
[112, 80]

>  <energy_score>  (884) 
1368.3922728611003

>  <distance_score>  (884) 
9.55409050088732

>  <path>  (884) 
/opt/xchem-fragalysis-2/maxwin/BulkDock/SCRATCH/511014/C10060-P80/C10060-P80.minimised.mol

>  <scratch_subdir>  (884) 
/opt/xchem-fragalysis-2/maxwin/BulkDock/SCRATCH/511014/C10060-P80

>  <fragmenstein_runtime>  (884) 
14.258167743682861

>  <fragmenstein_outcome>  (884) 
too moved

>  <fragmenstein_mode>  (884) 
expansion

>  <fragmenstein_error>  (884) 


$$$$
C10066-P112
     RDKit          3D

 33 34  0  0  0  0  0  0  0  0999 V2000
    2.8472  -17.1532    7.3964 C   0  0  0  0  0  0  0  0  0  0  0  0
    3.1840  -16.5525    8.7295 N   0  0  0  0  0  0  0  0  0  0  0  0
    2.2026  -17.6618    9.2250 C   0  0  0  0  0  0  0  0  0  0  0  0
    2.7018  -19.1125    9.5588 C   0  0  0  0  0  0  0  0  0  0  0  0
    1.6348  -20.0192   10.0245 N   0  0  0  0  0  0  0  0  0  0  0  0
    0.7512  -20.8925    9.2945 C   0  0  0  0  0  0  0  0  0  0  0  0
    0.7109  -21.1638    8.1296 O   0  0  0  0  0  0  0  0  0  0  0  0
   -0.2783  -21.5464   10.1350 C   0  0  0  0  0  0  0  0  0  0  0  0
   -1.4012  -22.1094    9.5523 N   0  0  0  0  0  0  0  0  0  0  0  0
   -2.3094  -22.6190   10.4103 N   0  0  0  0  0  0  0  0  0  0  0  0
   -1.7499  -22.3975   11.6014 C   0  0  0  0  0  0  0  0  0  0  0  0
   -0.4978  -21.7435   11.4881 C   0  0  0  0  0  0  0  0  0  0  0  0
    0.4785  -21.2882   12.7997 Cl  0  0  0  0  0  0  0  0  0  0  0  0
    4.6065  -16.4290    8.8701 C   0  0  0  0  0  0  0  0  0  0  0  0
    5.4139  -17.1928    9.3266 O   0  0  0  0  0  0  0  0  0  0  0  0
    5.0793  -15.0881    8.4561 C   0  0  0  0  0  0  0  0  0  0  0  0
    6.3782  -14.5957    8.3767 C   0  0  0  0  0  0  0  0  0  0  0  0
    6.4178  -13.2740    7.9970 N   0  0  0  0  0  0  0  0  0  0  0  0
    5.1602  -12.9315    7.8536 C   0  0  0  0  0  0  0  0  0  0  0  0
    4.3220  -13.9737    8.1462 N   0  0  0  0  0  0  0  0  0  0  0  0
    3.4138  -16.5605    6.6616 H   0  0  0  0  0  0  0  0  0  0  0  0
    1.8075  -16.9963    7.0750 H   0  0  0  0  0  0  0  0  0  0  0  0
    3.2299  -18.1664    7.2282 H   0  0  0  0  0  0  0  0  0  0  0  0
    1.9627  -17.2579   10.2225 H   0  0  0  0  0  0  0  0  0  0  0  0
    1.2011  -17.6470    8.7631 H   0  0  0  0  0  0  0  0  0  0  0  0
    3.1517  -19.5920    8.6864 H   0  0  0  0  0  0  0  0  0  0  0  0
    3.4555  -19.0713   10.3517 H   0  0  0  0  0  0  0  0  0  0  0  0
    1.3241  -19.9658   10.9889 H   0  0  0  0  0  0  0  0  0  0  0  0
   -1.5913  -22.1442    8.5561 H   0  0  0  0  0  0  0  0  0  0  0  0
   -2.2725  -22.7105   12.4968 H   0  0  0  0  0  0  0  0  0  0  0  0
    7.2917  -15.1448    8.5640 H   0  0  0  0  0  0  0  0  0  0  0  0
    4.7937  -11.9560    7.5621 H   0  0  0  0  0  0  0  0  0  0  0  0
    3.3117  -13.9477    8.1379 H   0  0  0  0  0  0  0  0  0  0  0  0
  1  2  1  0
  2  3  1  0
  3  4  1  0
  4  5  1  0
  5  6  1  0
  6  7  2  0
  6  8  1  0
  8  9  1  0
  9 10  1  0
 10 11  2  0
 11 12  1  0
 12 13  1  0
  2 14  1  0
 14 15  2  0
 14 16  1  0
 16 17  2  0
 17 18  1  0
 18 19  2  0
 19 20  1  0
 12  8  2  0
 20 16  1  0
  1 21  1  0
  1 22  1  0
  1 23  1  0
  3 24  1  0
  3 25  1  0
  4 26  1  0
  4 27  1  0
  5 28  1  0
  9 29  1  0
 11 30  1  0
 17 31  1  0
 19 32  1  0
 20 33  1  0
M  END
>  <Energy>  (885) 
21.934544052350795

>  <compound_id>  (885) 
10066

>  <target_id>  (885) 
1

>  <reference_id>  (885) 
112

>  <inspiration_ids>  (885) 
[112, 80]

>  <energy_score>  (885) 
51.86993938640444

>  <distance_score>  (885) 
13.685229500827528

>  <path>  (885) 
/opt/xchem-fragalysis-2/maxwin/BulkDock/SCRATCH/511014/C10066-P112/C10066-P112.minimised.mol

>  <scratch_subdir>  (885) 
/opt/xchem-fragalysis-2/maxwin/BulkDock/SCRATCH/511014/C10066-P112

>  <fragmenstein_runtime>  (885) 
21.47156596183777

>  <fragmenstein_outcome>  (885) 
too moved

>  <fragmenstein_mode>  (885) 
expansion

>  <fragmenstein_error>  (885) 


$$$$
C10066-P80
     RDKit          3D

 33 34  0  0  0  0  0  0  0  0999 V2000
    5.5500  -12.0132   13.4290 C   0  0  0  0  0  0  0  0  0  0  0  0
    5.7325  -10.8276   14.0834 N   0  0  0  0  0  0  0  0  0  0  0  0
    3.9786  -10.5001   13.4325 C   0  0  0  0  0  0  0  0  0  0  0  0
    2.0219  -11.1999   12.9739 C   0  0  0  0  0  0  0  0  0  0  0  0
    0.9562  -12.3679   14.1952 N   0  0  0  0  0  0  0  0  0  0  0  0
   -0.4748  -13.5802   13.9008 C   0  0  0  0  0  0  0  0  0  0  0  0
   -0.7825  -13.7978   12.7680 O   0  0  0  0  0  0  0  0  0  0  0  0
   -1.6419  -14.3906   15.4260 C   0  0  0  0  0  0  0  0  0  0  0  0
   -2.6319  -15.4499   15.1562 N   0  0  0  0  0  0  0  0  0  0  0  0
   -3.7121  -15.9660   15.7126 N   0  0  0  0  0  0  0  0  0  0  0  0
   -3.5942  -15.3831   16.8475 C   0  0  0  0  0  0  0  0  0  0  0  0
   -2.2608  -14.6077   16.9978 C   0  0  0  0  0  0  0  0  0  0  0  0
   -2.0985  -16.0578   18.7105 Cl  0  0  0  0  0  0  0  0  0  0  0  0
    7.3125  -10.1046   13.6119 C   0  0  0  0  0  0  0  0  0  0  0  0
    7.5844   -9.3228   12.7145 O   0  0  0  0  0  0  0  0  0  0  0  0
    8.5791  -10.5522   14.3004 C   0  0  0  0  0  0  0  0  0  0  0  0
    9.5926  -11.2934   13.7070 C   0  0  0  0  0  0  0  0  0  0  0  0
   10.6439  -11.4991   14.5554 N   0  0  0  0  0  0  0  0  0  0  0  0
   10.2973  -10.9011   15.6665 C   0  0  0  0  0  0  0  0  0  0  0  0
    9.0853  -10.2871   15.5487 N   0  0  0  0  0  0  0  0  0  0  0  0
    6.0414  -12.9827   13.7027 H   0  0  0  0  0  0  0  0  0  0  0  0
    4.9276  -12.3747   14.2235 H   0  0  0  0  0  0  0  0  0  0  0  0
    6.5882  -12.0382   13.0741 H   0  0  0  0  0  0  0  0  0  0  0  0
    3.7644  -10.6956   14.4938 H   0  0  0  0  0  0  0  0  0  0  0  0
    4.0499   -9.4136   13.4813 H   0  0  0  0  0  0  0  0  0  0  0  0
    1.4608  -10.9438   12.0504 H   0  0  0  0  0  0  0  0  0  0  0  0
    2.1408  -10.8488   13.8880 H   0  0  0  0  0  0  0  0  0  0  0  0
    1.1587  -12.3523   15.1736 H   0  0  0  0  0  0  0  0  0  0  0  0
   -2.2218  -16.2938   14.8800 H   0  0  0  0  0  0  0  0  0  0  0  0
   -4.2595  -15.8819   17.5423 H   0  0  0  0  0  0  0  0  0  0  0  0
    9.6075  -11.6794   12.6966 H   0  0  0  0  0  0  0  0  0  0  0  0
   10.8799  -10.8900   16.5749 H   0  0  0  0  0  0  0  0  0  0  0  0
    8.5863   -9.8544   16.3016 H   0  0  0  0  0  0  0  0  0  0  0  0
  1  2  1  0
  2  3  1  0
  3  4  1  0
  4  5  1  0
  5  6  1  0
  6  7  2  0
  6  8  1  0
  8  9  1  0
  9 10  1  0
 10 11  2  0
 11 12  1  0
 12 13  1  0
  2 14  1  0
 14 15  2  0
 14 16  1  0
 16 17  2  0
 17 18  1  0
 18 19  2  0
 19 20  1  0
 12  8  2  0
 20 16  1  0
  1 21  1  0
  1 22  1  0
  1 23  1  0
  3 24  1  0
  3 25  1  0
  4 26  1  0
  4 27  1  0
  5 28  1  0
  9 29  1  0
 11 30  1  0
 17 31  1  0
 19 32  1  0
 20 33  1  0
M  END
>  <Energy>  (886) 
885.03334397455637

>  <compound_id>  (886) 
10066

>  <target_id>  (886) 
1

>  <reference_id>  (886) 
80

>  <inspiration_ids>  (886) 
[112, 80]

>  <energy_score>  (886) 
914.9687393086094

>  <distance_score>  (886) 
12.637736642835991

>  <path>  (886) 
/opt/xchem-fragalysis-2/maxwin/BulkDock/SCRATCH/511014/C10066-P80/C10066-P80.minimised.mol

>  <scratch_subdir>  (886) 
/opt/xchem-fragalysis-2/maxwin/BulkDock/SCRATCH/511014/C10066-P80

>  <fragmenstein_runtime>  (886) 
13.273669958114624

>  <fragmenstein_outcome>  (886) 
too moved

>  <fragmenstein_mode>  (886) 
expansion

>  <fragmenstein_error>  (886) 


$$$$
C10069-P112
     RDKit          3D

 42 43  0  0  0  0  0  0  0  0999 V2000
    2.1315  -17.4268   10.6243 C   0  0  0  0  0  0  0  0  0  0  0  0
    1.2055  -16.3239   10.0904 C   0  0  0  0  0  0  0  0  0  0  0  0
    0.3398  -15.2692   11.2450 C   0  0  0  0  0  0  0  0  0  0  0  0
    0.9542  -14.1153   12.1660 N   0  0  0  0  0  0  0  0  0  0  0  0
    0.5641  -12.6919   12.3445 C   0  0  0  0  0  0  0  0  0  0  0  0
   -0.2638  -12.0333   11.7781 O   0  0  0  0  0  0  0  0  0  0  0  0
    1.5748  -11.8009   13.7215 C   0  0  0  0  0  0  0  0  0  0  0  0
    2.0227  -12.5479   15.0223 C   0  0  0  0  0  0  0  0  0  0  0  0
    3.2340  -10.4596   13.7265 C   0  0  0  0  0  0  0  0  0  0  0  0
    4.9179  -10.7441   13.7772 C   0  0  0  0  0  0  0  0  0  0  0  0
    6.2098  -10.3203   13.5818 C   0  0  0  0  0  0  0  0  0  0  0  0
    7.0692  -11.2419   13.1375 N   0  0  0  0  0  0  0  0  0  0  0  0
    6.4353  -12.3254   13.3473 C   0  0  0  0  0  0  0  0  0  0  0  0
    5.3329  -11.9614   13.9679 N   0  0  0  0  0  0  0  0  0  0  0  0
    0.2432  -17.1222    9.2792 N   0  0  0  0  0  0  0  0  0  0  0  0
    0.2502  -17.4808    7.8749 C   0  0  0  0  0  0  0  0  0  0  0  0
    0.9906  -17.1594    6.9929 O   0  0  0  0  0  0  0  0  0  0  0  0
   -0.9213  -18.3337    7.5579 C   0  0  0  0  0  0  0  0  0  0  0  0
   -2.2477  -17.9900    7.7584 N   0  0  0  0  0  0  0  0  0  0  0  0
   -3.1413  -18.9965    7.5818 N   0  0  0  0  0  0  0  0  0  0  0  0
   -2.3619  -20.0148    7.2067 C   0  0  0  0  0  0  0  0  0  0  0  0
   -0.9936  -19.6565    7.1546 C   0  0  0  0  0  0  0  0  0  0  0  0
    0.2761  -20.7094    6.7632 Cl  0  0  0  0  0  0  0  0  0  0  0  0
    3.0510  -17.0664   11.0801 H   0  0  0  0  0  0  0  0  0  0  0  0
    2.4721  -18.0629    9.7950 H   0  0  0  0  0  0  0  0  0  0  0  0
    1.5995  -18.0976   11.3071 H   0  0  0  0  0  0  0  0  0  0  0  0
    1.8194  -15.7506    9.3927 H   0  0  0  0  0  0  0  0  0  0  0  0
   -0.6797  -15.0049   10.9619 H   0  0  0  0  0  0  0  0  0  0  0  0
    0.2192  -16.0687   11.9137 H   0  0  0  0  0  0  0  0  0  0  0  0
    1.7297  -14.3126   12.7434 H   0  0  0  0  0  0  0  0  0  0  0  0
    0.6477  -11.7066   14.1018 H   0  0  0  0  0  0  0  0  0  0  0  0
    1.6182  -12.1557   15.8345 H   0  0  0  0  0  0  0  0  0  0  0  0
    3.0579  -11.9808   15.3632 H   0  0  0  0  0  0  0  0  0  0  0  0
    1.6001  -13.3646   15.7789 H   0  0  0  0  0  0  0  0  0  0  0  0
    3.2235   -9.9019   14.5979 H   0  0  0  0  0  0  0  0  0  0  0  0
    3.4035  -10.0720   12.6943 H   0  0  0  0  0  0  0  0  0  0  0  0
    6.7400   -9.3950   13.5835 H   0  0  0  0  0  0  0  0  0  0  0  0
    6.7833  -13.3127   13.1791 H   0  0  0  0  0  0  0  0  0  0  0  0
    4.9692  -12.4200   14.7330 H   0  0  0  0  0  0  0  0  0  0  0  0
   -0.4842  -17.6488    9.7518 H   0  0  0  0  0  0  0  0  0  0  0  0
   -2.5958  -17.0976    8.0875 H   0  0  0  0  0  0  0  0  0  0  0  0
   -2.8103  -20.9744    6.9869 H   0  0  0  0  0  0  0  0  0  0  0  0
  1  2  1  0
  2  3  1  0
  3  4  1  0
  4  5  1  0
  5  6  2  0
  5  7  1  0
  7  8  1  0
  7  9  1  0
  9 10  1  0
 10 11  2  0
 11 12  1  0
 12 13  2  0
 13 14  1  0
  2 15  1  0
 15 16  1  0
 16 17  2  0
 16 18  1  0
 18 19  1  0
 19 20  1  0
 20 21  2  0
 21 22  1  0
 22 23  1  0
 14 10  1  0
 22 18  2  0
  1 24  1  0
  1 25  1  0
  1 26  1  0
  2 27  1  0
  3 28  1  0
  3 29  1  0
  4 30  1  0
  7 31  1  0
  8 32  1  0
  8 33  1  0
  8 34  1  0
  9 35  1  0
  9 36  1  0
 11 37  1  0
 13 38  1  0
 14 39  1  0
 15 40  1  0
 19 41  1  0
 21 42  1  0
M  END
>  <Energy>  (887) 
346.66649155748877

>  <compound_id>  (887) 
10069

>  <target_id>  (887) 
1

>  <reference_id>  (887) 
112

>  <inspiration_ids>  (887) 
[112, 80]

>  <energy_score>  (887) 
352.29412667363005

>  <distance_score>  (887) 
12.83213682544436

>  <path>  (887) 
/opt/xchem-fragalysis-2/maxwin/BulkDock/SCRATCH/511014/C10069-P112/C10069-P112.minimised.mol

>  <scratch_subdir>  (887) 
/opt/xchem-fragalysis-2/maxwin/BulkDock/SCRATCH/511014/C10069-P112

>  <fragmenstein_runtime>  (887) 
27.313066959381104

>  <fragmenstein_outcome>  (887) 
too moved

>  <fragmenstein_mode>  (887) 
expansion

>  <fragmenstein_error>  (887) 


$$$$
C10069-P80
     RDKit          3D

 42 43  0  0  0  0  0  0  0  0999 V2000
    0.5355  -14.9686   11.8108 C   0  0  0  0  0  0  0  0  0  0  0  0
   -0.5404  -13.9841   11.4973 C   0  0  0  0  0  0  0  0  0  0  0  0
    0.0915  -12.1582   11.2876 C   0  0  0  0  0  0  0  0  0  0  0  0
    1.2567  -11.3902   12.0924 N   0  0  0  0  0  0  0  0  0  0  0  0
    2.6444  -10.7623   11.5876 C   0  0  0  0  0  0  0  0  0  0  0  0
    3.0845  -10.6443   10.4625 O   0  0  0  0  0  0  0  0  0  0  0  0
    3.7885  -10.2628   13.1881 C   0  0  0  0  0  0  0  0  0  0  0  0
    4.9463  -11.1125   13.8348 C   0  0  0  0  0  0  0  0  0  0  0  0
    4.1030   -8.4426   13.4401 C   0  0  0  0  0  0  0  0  0  0  0  0
    5.0353   -7.2820   13.7800 C   0  0  0  0  0  0  0  0  0  0  0  0
    6.3305   -7.6277   14.3059 C   0  0  0  0  0  0  0  0  0  0  0  0
    6.5041   -6.7284   15.6307 N   0  0  0  0  0  0  0  0  0  0  0  0
    5.3773   -6.0016   15.8146 C   0  0  0  0  0  0  0  0  0  0  0  0
    4.4729   -6.1878   14.7231 N   0  0  0  0  0  0  0  0  0  0  0  0
   -1.3616  -15.2264   10.5844 N   0  0  0  0  0  0  0  0  0  0  0  0
   -2.6639  -15.1785    9.7345 C   0  0  0  0  0  0  0  0  0  0  0  0
   -3.3643  -14.2540    9.4447 O   0  0  0  0  0  0  0  0  0  0  0  0
   -3.2168  -16.4259    9.1633 C   0  0  0  0  0  0  0  0  0  0  0  0
   -4.5734  -16.6785    9.3447 N   0  0  0  0  0  0  0  0  0  0  0  0
   -5.0054  -17.8681    8.8884 N   0  0  0  0  0  0  0  0  0  0  0  0
   -3.9529  -18.2940    8.1858 C   0  0  0  0  0  0  0  0  0  0  0  0
   -2.8674  -17.3805    8.2282 C   0  0  0  0  0  0  0  0  0  0  0  0
   -1.4786  -17.5073    7.2570 Cl  0  0  0  0  0  0  0  0  0  0  0  0
    1.0318  -15.3746   10.9280 H   0  0  0  0  0  0  0  0  0  0  0  0
    1.0970  -14.4717   12.5756 H   0  0  0  0  0  0  0  0  0  0  0  0
    0.2075  -15.8968   12.2532 H   0  0  0  0  0  0  0  0  0  0  0  0
   -0.7364  -13.9821   12.5535 H   0  0  0  0  0  0  0  0  0  0  0  0
    0.9866  -12.7141   11.0818 H   0  0  0  0  0  0  0  0  0  0  0  0
   -0.5466  -11.8208   12.0781 H   0  0  0  0  0  0  0  0  0  0  0  0
    1.2442  -11.4074   13.0753 H   0  0  0  0  0  0  0  0  0  0  0  0
    3.1719  -10.4990   14.0357 H   0  0  0  0  0  0  0  0  0  0  0  0
    5.3029  -12.0486   13.4332 H   0  0  0  0  0  0  0  0  0  0  0  0
    5.8476  -10.5739   13.9540 H   0  0  0  0  0  0  0  0  0  0  0  0
    4.5706  -11.3894   14.8165 H   0  0  0  0  0  0  0  0  0  0  0  0
    3.7549   -8.0479   12.4770 H   0  0  0  0  0  0  0  0  0  0  0  0
    4.8869   -8.9720   13.8767 H   0  0  0  0  0  0  0  0  0  0  0  0
    7.1566   -8.2571   13.9688 H   0  0  0  0  0  0  0  0  0  0  0  0
    5.0465   -5.4679   16.6868 H   0  0  0  0  0  0  0  0  0  0  0  0
    3.5470   -5.7929   14.7026 H   0  0  0  0  0  0  0  0  0  0  0  0
   -0.9750  -16.1674   10.5593 H   0  0  0  0  0  0  0  0  0  0  0  0
   -5.2225  -16.0668    9.8340 H   0  0  0  0  0  0  0  0  0  0  0  0
   -4.0235  -19.2214    7.6335 H   0  0  0  0  0  0  0  0  0  0  0  0
  1  2  1  0
  2  3  1  0
  3  4  1  0
  4  5  1  0
  5  6  2  0
  5  7  1  0
  7  8  1  0
  7  9  1  0
  9 10  1  0
 10 11  2  0
 11 12  1  0
 12 13  2  0
 13 14  1  0
  2 15  1  0
 15 16  1  0
 16 17  2  0
 16 18  1  0
 18 19  1  0
 19 20  1  0
 20 21  2  0
 21 22  1  0
 22 23  1  0
 14 10  1  0
 22 18  2  0
  1 24  1  0
  1 25  1  0
  1 26  1  0
  2 27  1  0
  3 28  1  0
  3 29  1  0
  4 30  1  0
  7 31  1  0
  8 32  1  0
  8 33  1  0
  8 34  1  0
  9 35  1  0
  9 36  1  0
 11 37  1  0
 13 38  1  0
 14 39  1  0
 15 40  1  0
 19 41  1  0
 21 42  1  0
M  END
>  <Energy>  (888) 
436.46635616608341

>  <compound_id>  (888) 
10069

>  <target_id>  (888) 
1

>  <reference_id>  (888) 
80

>  <inspiration_ids>  (888) 
[112, 80]

>  <energy_score>  (888) 
442.0939912822269

>  <distance_score>  (888) 
11.118679486278301

>  <path>  (888) 
/opt/xchem-fragalysis-2/maxwin/BulkDock/SCRATCH/511014/C10069-P80/C10069-P80.minimised.mol

>  <scratch_subdir>  (888) 
/opt/xchem-fragalysis-2/maxwin/BulkDock/SCRATCH/511014/C10069-P80

>  <fragmenstein_runtime>  (888) 
22.578176498413086

>  <fragmenstein_outcome>  (888) 
too moved

>  <fragmenstein_mode>  (888) 
expansion

>  <fragmenstein_error>  (888) 


$$$$
C10070-P112
     RDKit          3D

 39 40  0  0  0  0  0  0  0  0999 V2000
    2.2026  -17.2673    8.9290 C   0  0  0  0  0  0  0  0  0  0  0  0
    0.9507  -16.5245    9.4447 C   0  0  0  0  0  0  0  0  0  0  0  0
    0.7996  -15.9254   11.2598 C   0  0  0  0  0  0  0  0  0  0  0  0
    0.4518  -17.1676   11.4876 N   0  0  0  0  0  0  0  0  0  0  0  0
    0.4961  -15.1378   11.6027 C   0  0  0  0  0  0  0  0  0  0  0  0
    0.3540  -13.8856   13.2196 C   0  0  0  0  0  0  0  0  0  0  0  0
    0.7781  -14.2681   15.1523 N   0  0  0  0  0  0  0  0  0  0  0  0
    1.4323  -13.5693   16.0779 C   0  0  0  0  0  0  0  0  0  0  0  0
    1.8571  -12.4892   16.0119 O   0  0  0  0  0  0  0  0  0  0  0  0
    1.8167  -14.4011   17.4847 C   0  0  0  0  0  0  0  0  0  0  0  0
    3.0377  -14.0703   18.1192 C   0  0  0  0  0  0  0  0  0  0  0  0
    3.9019  -15.0969   18.0598 N   0  0  0  0  0  0  0  0  0  0  0  0
    3.1710  -16.1470   17.8519 C   0  0  0  0  0  0  0  0  0  0  0  0
    1.8872  -15.7465   17.8516 N   0  0  0  0  0  0  0  0  0  0  0  0
    1.6201  -18.4525   11.3849 C   0  0  0  0  0  0  0  0  0  0  0  0
    2.7652  -18.4559   11.2467 O   0  0  0  0  0  0  0  0  0  0  0  0
    1.0031  -19.7927   11.4997 C   0  0  0  0  0  0  0  0  0  0  0  0
    0.5202  -20.3743   12.6442 N   0  0  0  0  0  0  0  0  0  0  0  0
    0.0741  -21.6401   12.5256 N   0  0  0  0  0  0  0  0  0  0  0  0
    0.4465  -21.9605   11.2931 C   0  0  0  0  0  0  0  0  0  0  0  0
    1.0079  -20.8640   10.6102 C   0  0  0  0  0  0  0  0  0  0  0  0
    1.6016  -20.9710    9.0230 Cl  0  0  0  0  0  0  0  0  0  0  0  0
    2.3223  -17.0851    7.8542 H   0  0  0  0  0  0  0  0  0  0  0  0
    3.1141  -16.9303    9.4258 H   0  0  0  0  0  0  0  0  0  0  0  0
    2.0998  -18.3442    8.9913 H   0  0  0  0  0  0  0  0  0  0  0  0
    1.0636  -15.6881    8.7728 H   0  0  0  0  0  0  0  0  0  0  0  0
    0.0906  -17.0813    9.1197 H   0  0  0  0  0  0  0  0  0  0  0  0
    1.7989  -16.3779   11.5360 H   0  0  0  0  0  0  0  0  0  0  0  0
    1.8084  -15.6009   10.5545 H   0  0  0  0  0  0  0  0  0  0  0  0
   -0.6100  -14.8044   11.2800 H   0  0  0  0  0  0  0  0  0  0  0  0
    1.2769  -14.2674   11.3884 H   0  0  0  0  0  0  0  0  0  0  0  0
    0.8213  -12.9423   12.9820 H   0  0  0  0  0  0  0  0  0  0  0  0
   -0.6754  -13.6015   13.2304 H   0  0  0  0  0  0  0  0  0  0  0  0
    0.5371  -14.9555   15.4815 H   0  0  0  0  0  0  0  0  0  0  0  0
    3.4762  -13.0877   18.1710 H   0  0  0  0  0  0  0  0  0  0  0  0
    3.5085  -17.1747   17.8340 H   0  0  0  0  0  0  0  0  0  0  0  0
    1.1063  -16.3257   18.1059 H   0  0  0  0  0  0  0  0  0  0  0  0
    0.5708  -20.0169   13.5845 H   0  0  0  0  0  0  0  0  0  0  0  0
    0.3039  -22.9728   10.9436 H   0  0  0  0  0  0  0  0  0  0  0  0
  1  2  1  0
  2  3  1  0
  3  4  1  0
  4  5  1  0
  5  6  1  0
  6  7  1  0
  7  8  1  0
  8  9  2  0
  8 10  1  0
 10 11  2  0
 11 12  1  0
 12 13  2  0
 13 14  1  0
  4 15  1  0
 15 16  2  0
 15 17  1  0
 17 18  1  0
 18 19  1  0
 19 20  2  0
 20 21  1  0
 21 22  1  0
 14 10  1  0
 21 17  2  0
  1 23  1  0
  1 24  1  0
  1 25  1  0
  2 26  1  0
  2 27  1  0
  3 28  1  0
  3 29  1  0
  5 30  1  0
  5 31  1  0
  6 32  1  0
  6 33  1  0
  7 34  1  0
 11 35  1  0
 13 36  1  0
 14 37  1  0
 18 38  1  0
 20 39  1  0
M  END
>  <Energy>  (889) 
1029.1990812453994

>  <compound_id>  (889) 
10070

>  <target_id>  (889) 
1

>  <reference_id>  (889) 
112

>  <inspiration_ids>  (889) 
[112, 80]

>  <energy_score>  (889) 
1057.117085570318

>  <distance_score>  (889) 
14.765155701075342

>  <path>  (889) 
/opt/xchem-fragalysis-2/maxwin/BulkDock/SCRATCH/511014/C10070-P112/C10070-P112.minimised.mol

>  <scratch_subdir>  (889) 
/opt/xchem-fragalysis-2/maxwin/BulkDock/SCRATCH/511014/C10070-P112

>  <fragmenstein_runtime>  (889) 
17.32152557373047

>  <fragmenstein_outcome>  (889) 
too moved

>  <fragmenstein_mode>  (889) 
expansion

>  <fragmenstein_error>  (889) 


$$$$
C10070-P80
     RDKit          3D

 39 40  0  0  0  0  0  0  0  0999 V2000
  -10.2363  -21.9694    7.5075 C   0  0  0  0  0  0  0  0  0  0  0  0
  -10.8001  -20.5713    7.2829 C   0  0  0  0  0  0  0  0  0  0  0  0
   -9.9720  -19.4621    6.2439 C   0  0  0  0  0  0  0  0  0  0  0  0
   -8.0276  -18.6038    6.2582 N   0  0  0  0  0  0  0  0  0  0  0  0
   -7.0602  -17.9526    8.0370 C   0  0  0  0  0  0  0  0  0  0  0  0
   -4.9136  -17.3337    8.2136 C   0  0  0  0  0  0  0  0  0  0  0  0
   -3.6998  -16.3646    7.5526 N   0  0  0  0  0  0  0  0  0  0  0  0
   -2.3227  -16.7500    6.9549 C   0  0  0  0  0  0  0  0  0  0  0  0
   -1.7745  -17.8147    6.9028 O   0  0  0  0  0  0  0  0  0  0  0  0
   -1.5218  -15.7317    6.2114 C   0  0  0  0  0  0  0  0  0  0  0  0
   -0.1123  -15.6858    6.1512 C   0  0  0  0  0  0  0  0  0  0  0  0
    0.3632  -14.5882    5.4720 N   0  0  0  0  0  0  0  0  0  0  0  0
   -0.7105  -14.0530    4.9485 C   0  0  0  0  0  0  0  0  0  0  0  0
   -1.8485  -14.7587    5.2829 N   0  0  0  0  0  0  0  0  0  0  0  0
   -8.4951  -18.9249    5.7817 C   0  0  0  0  0  0  0  0  0  0  0  0
   -9.2185  -19.2442    7.5067 O   0  0  0  0  0  0  0  0  0  0  0  0
   -8.9247  -19.4130    4.3911 C   0  0  0  0  0  0  0  0  0  0  0  0
   -9.7553  -18.7372    3.5319 N   0  0  0  0  0  0  0  0  0  0  0  0
  -10.1846  -19.4888    2.5087 N   0  0  0  0  0  0  0  0  0  0  0  0
   -9.4811  -20.6172    2.6217 C   0  0  0  0  0  0  0  0  0  0  0  0
   -8.6368  -20.6104    3.7402 C   0  0  0  0  0  0  0  0  0  0  0  0
   -7.6496  -21.9123    4.1852 Cl  0  0  0  0  0  0  0  0  0  0  0  0
  -11.0581  -22.6796    7.6530 H   0  0  0  0  0  0  0  0  0  0  0  0
   -9.6300  -22.3267    6.6724 H   0  0  0  0  0  0  0  0  0  0  0  0
   -9.6555  -21.9943    8.4296 H   0  0  0  0  0  0  0  0  0  0  0  0
  -11.0039  -20.1108    8.2517 H   0  0  0  0  0  0  0  0  0  0  0  0
  -11.7324  -20.7474    6.7319 H   0  0  0  0  0  0  0  0  0  0  0  0
  -10.6765  -18.8487    5.6400 H   0  0  0  0  0  0  0  0  0  0  0  0
   -9.8792  -20.4251    5.6656 H   0  0  0  0  0  0  0  0  0  0  0  0
   -6.6363  -18.3859    7.2724 H   0  0  0  0  0  0  0  0  0  0  0  0
   -7.8152  -17.2148    8.2409 H   0  0  0  0  0  0  0  0  0  0  0  0
   -3.9935  -18.0138    7.9885 H   0  0  0  0  0  0  0  0  0  0  0  0
   -4.4952  -17.8667    9.0905 H   0  0  0  0  0  0  0  0  0  0  0  0
   -3.8186  -15.3683    7.5017 H   0  0  0  0  0  0  0  0  0  0  0  0
    0.5671  -16.3732    6.6438 H   0  0  0  0  0  0  0  0  0  0  0  0
   -0.7414  -13.1823    4.3073 H   0  0  0  0  0  0  0  0  0  0  0  0
   -2.7762  -14.5564    4.9420 H   0  0  0  0  0  0  0  0  0  0  0  0
  -10.1686  -17.8177    3.6571 H   0  0  0  0  0  0  0  0  0  0  0  0
   -9.6162  -21.3961    1.8815 H   0  0  0  0  0  0  0  0  0  0  0  0
  1  2  1  0
  2  3  1  0
  3  4  1  0
  4  5  1  0
  5  6  1  0
  6  7  1  0
  7  8  1  0
  8  9  2  0
  8 10  1  0
 10 11  2  0
 11 12  1  0
 12 13  2  0
 13 14  1  0
  4 15  1  0
 15 16  2  0
 15 17  1  0
 17 18  1  0
 18 19  1  0
 19 20  2  0
 20 21  1  0
 21 22  1  0
 14 10  1  0
 21 17  2  0
  1 23  1  0
  1 24  1  0
  1 25  1  0
  2 26  1  0
  2 27  1  0
  3 28  1  0
  3 29  1  0
  5 30  1  0
  5 31  1  0
  6 32  1  0
  6 33  1  0
  7 34  1  0
 11 35  1  0
 13 36  1  0
 14 37  1  0
 18 38  1  0
 20 39  1  0
M  END
>  <Energy>  (890) 
1922.1950812377645

>  <compound_id>  (890) 
10070

>  <target_id>  (890) 
1

>  <reference_id>  (890) 
80

>  <inspiration_ids>  (890) 
[112, 80]

>  <energy_score>  (890) 
1950.1130855627025

>  <distance_score>  (890) 
15.941476524593545

>  <path>  (890) 
/opt/xchem-fragalysis-2/maxwin/BulkDock/SCRATCH/511014/C10070-P80/C10070-P80.minimised.mol

>  <scratch_subdir>  (890) 
/opt/xchem-fragalysis-2/maxwin/BulkDock/SCRATCH/511014/C10070-P80

>  <fragmenstein_runtime>  (890) 
32.87608814239502

>  <fragmenstein_outcome>  (890) 
too moved

>  <fragmenstein_mode>  (890) 
expansion

>  <fragmenstein_error>  (890) 


$$$$
C10071-P112
     RDKit          3D

 42 43  0  0  0  0  0  0  0  0999 V2000
    1.8857  -17.1760   10.1782 C   0  0  0  0  0  0  0  0  0  0  0  0
    0.5311  -17.0253   10.8882 C   0  0  0  0  0  0  0  0  0  0  0  0
    0.2147  -15.6108   11.4019 C   0  0  0  0  0  0  0  0  0  0  0  0
   -1.0284  -14.6876   11.8394 C   0  0  0  0  0  0  0  0  0  0  0  0
   -1.3912  -13.9860   13.6339 C   0  0  0  0  0  0  0  0  0  0  0  0
   -0.0020  -12.8238   12.8793 C   0  0  0  0  0  0  0  0  0  0  0  0
    1.0251  -12.0240   13.4022 N   0  0  0  0  0  0  0  0  0  0  0  0
    1.9864  -10.8459   12.6580 C   0  0  0  0  0  0  0  0  0  0  0  0
    1.8993  -10.4046   11.5187 O   0  0  0  0  0  0  0  0  0  0  0  0
    3.4281  -10.3432   13.8336 C   0  0  0  0  0  0  0  0  0  0  0  0
    4.4942   -9.5325   13.6809 C   0  0  0  0  0  0  0  0  0  0  0  0
    5.6296  -10.2539   13.6785 N   0  0  0  0  0  0  0  0  0  0  0  0
    5.2537  -11.4016   14.0137 C   0  0  0  0  0  0  0  0  0  0  0  0
    4.2077  -11.0763   14.8132 N   0  0  0  0  0  0  0  0  0  0  0  0
   -3.2300  -14.5433   14.4270 N   0  0  0  0  0  0  0  0  0  0  0  0
   -4.5970  -14.0812   14.1375 C   0  0  0  0  0  0  0  0  0  0  0  0
   -4.9917  -13.2005   13.4264 O   0  0  0  0  0  0  0  0  0  0  0  0
   -5.5959  -14.9376   14.7765 C   0  0  0  0  0  0  0  0  0  0  0  0
   -6.7574  -15.2481   14.0973 N   0  0  0  0  0  0  0  0  0  0  0  0
   -7.5697  -16.1148   14.7386 N   0  0  0  0  0  0  0  0  0  0  0  0
   -6.9190  -16.3501   15.8784 C   0  0  0  0  0  0  0  0  0  0  0  0
   -5.6901  -15.6619   15.9466 C   0  0  0  0  0  0  0  0  0  0  0  0
   -4.6257  -15.7269   17.2610 Cl  0  0  0  0  0  0  0  0  0  0  0  0
    2.0640  -16.3584    9.4742 H   0  0  0  0  0  0  0  0  0  0  0  0
    2.7202  -17.2233   10.8792 H   0  0  0  0  0  0  0  0  0  0  0  0
    1.8983  -18.1120    9.6088 H   0  0  0  0  0  0  0  0  0  0  0  0
    0.4709  -17.8253   11.6156 H   0  0  0  0  0  0  0  0  0  0  0  0
   -0.1685  -17.1931   10.0765 H   0  0  0  0  0  0  0  0  0  0  0  0
    0.0154  -15.4046   10.3939 H   0  0  0  0  0  0  0  0  0  0  0  0
    1.1255  -15.1024   11.6305 H   0  0  0  0  0  0  0  0  0  0  0  0
   -0.7849  -13.8304   11.2399 H   0  0  0  0  0  0  0  0  0  0  0  0
   -1.9587  -14.9608   11.3094 H   0  0  0  0  0  0  0  0  0  0  0  0
   -1.2832  -13.0499   14.0470 H   0  0  0  0  0  0  0  0  0  0  0  0
   -0.2983  -12.1977   12.0166 H   0  0  0  0  0  0  0  0  0  0  0  0
    0.6812  -13.5652   12.5035 H   0  0  0  0  0  0  0  0  0  0  0  0
    1.3950  -12.2318   14.3127 H   0  0  0  0  0  0  0  0  0  0  0  0
    4.5043   -8.4545   13.5383 H   0  0  0  0  0  0  0  0  0  0  0  0
    5.8184  -12.3026   13.8554 H   0  0  0  0  0  0  0  0  0  0  0  0
    3.8324  -11.6924   15.5215 H   0  0  0  0  0  0  0  0  0  0  0  0
   -3.2740  -15.3588   15.0038 H   0  0  0  0  0  0  0  0  0  0  0  0
   -7.0146  -14.9033   13.1752 H   0  0  0  0  0  0  0  0  0  0  0  0
   -7.3651  -17.0010   16.6175 H   0  0  0  0  0  0  0  0  0  0  0  0
  1  2  1  0
  2  3  1  0
  3  4  1  0
  4  5  1  0
  5  6  1  0
  6  7  1  0
  7  8  1  0
  8  9  2  0
  8 10  1  0
 10 11  2  0
 11 12  1  0
 12 13  2  0
 13 14  1  0
  5 15  1  0
 15 16  1  0
 16 17  2  0
 16 18  1  0
 18 19  1  0
 19 20  1  0
 20 21  2  0
 21 22  1  0
 22 23  1  0
 14 10  1  0
 22 18  2  0
  1 24  1  0
  1 25  1  0
  1 26  1  0
  2 27  1  0
  2 28  1  0
  3 29  1  0
  3 30  1  0
  4 31  1  0
  4 32  1  0
  5 33  1  0
  6 34  1  0
  6 35  1  0
  7 36  1  0
 11 37  1  0
 13 38  1  0
 14 39  1  0
 15 40  1  0
 19 41  1  0
 21 42  1  0
M  END
>  <Energy>  (891) 
485.73997995727728

>  <compound_id>  (891) 
10071

>  <target_id>  (891) 
1

>  <reference_id>  (891) 
112

>  <inspiration_ids>  (891) 
[112, 80]

>  <energy_score>  (891) 
513.4407851780401

>  <distance_score>  (891) 
11.848871208906932

>  <path>  (891) 
/opt/xchem-fragalysis-2/maxwin/BulkDock/SCRATCH/511014/C10071-P112/C10071-P112.minimised.mol

>  <scratch_subdir>  (891) 
/opt/xchem-fragalysis-2/maxwin/BulkDock/SCRATCH/511014/C10071-P112

>  <fragmenstein_runtime>  (891) 
23.726887702941895

>  <fragmenstein_outcome>  (891) 
too moved

>  <fragmenstein_mode>  (891) 
expansion

>  <fragmenstein_error>  (891) 


$$$$
C10071-P80
     RDKit          3D

 42 43  0  0  0  0  0  0  0  0999 V2000
    4.4944  -19.8834   12.9765 C   0  0  0  0  0  0  0  0  0  0  0  0
    3.1744  -19.7062   13.7119 C   0  0  0  0  0  0  0  0  0  0  0  0
    3.3869  -19.0282   15.0773 C   0  0  0  0  0  0  0  0  0  0  0  0
    2.0807  -18.7875   15.8834 C   0  0  0  0  0  0  0  0  0  0  0  0
    1.0989  -17.2460   15.9099 C   0  0  0  0  0  0  0  0  0  0  0  0
    1.4330  -14.9744   16.2797 C   0  0  0  0  0  0  0  0  0  0  0  0
    2.0103  -13.2205   15.1592 N   0  0  0  0  0  0  0  0  0  0  0  0
    3.4302  -11.8458   15.5171 C   0  0  0  0  0  0  0  0  0  0  0  0
    4.0567  -11.8227   16.5574 O   0  0  0  0  0  0  0  0  0  0  0  0
    4.1842  -10.5504   14.2692 C   0  0  0  0  0  0  0  0  0  0  0  0
    4.6852   -8.9834   13.8409 C   0  0  0  0  0  0  0  0  0  0  0  0
    6.3016   -8.3255   13.9382 N   0  0  0  0  0  0  0  0  0  0  0  0
    7.0843   -9.3992   13.7684 C   0  0  0  0  0  0  0  0  0  0  0  0
    5.8019  -10.7093   13.8824 N   0  0  0  0  0  0  0  0  0  0  0  0
   -1.0026  -17.9783   15.3295 N   0  0  0  0  0  0  0  0  0  0  0  0
   -2.7840  -16.9300   15.1142 C   0  0  0  0  0  0  0  0  0  0  0  0
   -2.6679  -15.7221   15.1906 O   0  0  0  0  0  0  0  0  0  0  0  0
   -4.4870  -17.2982   15.0805 C   0  0  0  0  0  0  0  0  0  0  0  0
   -4.9728  -17.8505   16.3001 N   0  0  0  0  0  0  0  0  0  0  0  0
   -6.2024  -17.5207   16.6978 N   0  0  0  0  0  0  0  0  0  0  0  0
   -6.5839  -16.6362   15.7896 C   0  0  0  0  0  0  0  0  0  0  0  0
   -5.5337  -16.3296   14.9103 C   0  0  0  0  0  0  0  0  0  0  0  0
   -5.5668  -14.8352   14.0754 Cl  0  0  0  0  0  0  0  0  0  0  0  0
    4.9640  -18.9150   12.7788 H   0  0  0  0  0  0  0  0  0  0  0  0
    5.1920  -20.4914   13.5613 H   0  0  0  0  0  0  0  0  0  0  0  0
    4.3295  -20.3838   12.0172 H   0  0  0  0  0  0  0  0  0  0  0  0
    2.7201  -20.6920   13.8661 H   0  0  0  0  0  0  0  0  0  0  0  0
    2.4905  -19.1414   13.0722 H   0  0  0  0  0  0  0  0  0  0  0  0
    3.9855  -18.1160   14.9847 H   0  0  0  0  0  0  0  0  0  0  0  0
    3.9839  -19.7501   15.6447 H   0  0  0  0  0  0  0  0  0  0  0  0
    1.4055  -19.5520   15.5307 H   0  0  0  0  0  0  0  0  0  0  0  0
    2.2386  -19.1016   16.9231 H   0  0  0  0  0  0  0  0  0  0  0  0
    1.3418  -17.4961   17.0321 H   0  0  0  0  0  0  0  0  0  0  0  0
    2.4202  -15.2052   16.7773 H   0  0  0  0  0  0  0  0  0  0  0  0
    0.9833  -14.3277   17.0580 H   0  0  0  0  0  0  0  0  0  0  0  0
    1.5383  -13.0043   14.2549 H   0  0  0  0  0  0  0  0  0  0  0  0
    4.2536   -7.9947   13.6338 H   0  0  0  0  0  0  0  0  0  0  0  0
    8.0969   -9.7152   14.0067 H   0  0  0  0  0  0  0  0  0  0  0  0
    6.1774  -11.6301   13.9971 H   0  0  0  0  0  0  0  0  0  0  0  0
   -1.1814  -18.9328   15.1720 H   0  0  0  0  0  0  0  0  0  0  0  0
   -4.4068  -18.3132   16.9985 H   0  0  0  0  0  0  0  0  0  0  0  0
   -7.5447  -16.1493   15.8935 H   0  0  0  0  0  0  0  0  0  0  0  0
  1  2  1  0
  2  3  1  0
  3  4  1  0
  4  5  1  0
  5  6  1  0
  6  7  1  0
  7  8  1  0
  8  9  2  0
  8 10  1  0
 10 11  2  0
 11 12  1  0
 12 13  2  0
 13 14  1  0
  5 15  1  0
 15 16  1  0
 16 17  2  0
 16 18  1  0
 18 19  1  0
 19 20  1  0
 20 21  2  0
 21 22  1  0
 22 23  1  0
 14 10  1  0
 22 18  2  0
  1 24  1  0
  1 25  1  0
  1 26  1  0
  2 27  1  0
  2 28  1  0
  3 29  1  0
  3 30  1  0
  4 31  1  0
  4 32  1  0
  5 33  1  0
  6 34  1  0
  6 35  1  0
  7 36  1  0
 11 37  1  0
 13 38  1  0
 14 39  1  0
 15 40  1  0
 19 41  1  0
 21 42  1  0
M  END
>  <Energy>  (892) 
1327.9385612849708

>  <compound_id>  (892) 
10071

>  <target_id>  (892) 
1

>  <reference_id>  (892) 
80

>  <inspiration_ids>  (892) 
[112, 80]

>  <energy_score>  (892) 
1355.6393665057435

>  <distance_score>  (892) 
11.02273195314827

>  <path>  (892) 
/opt/xchem-fragalysis-2/maxwin/BulkDock/SCRATCH/511014/C10071-P80/C10071-P80.minimised.mol

>  <scratch_subdir>  (892) 
/opt/xchem-fragalysis-2/maxwin/BulkDock/SCRATCH/511014/C10071-P80

>  <fragmenstein_runtime>  (892) 
18.463844537734985

>  <fragmenstein_outcome>  (892) 
too moved

>  <fragmenstein_mode>  (892) 
expansion

>  <fragmenstein_error>  (892) 


$$$$
C10074-P112
     RDKit          3D

 42 43  0  0  0  0  0  0  0  0999 V2000
    0.6127  -15.5424   11.4073 C   0  0  0  0  0  0  0  0  0  0  0  0
   -0.4697  -14.5252   11.7240 C   0  0  0  0  0  0  0  0  0  0  0  0
   -1.5416  -15.1070   10.8429 C   0  0  0  0  0  0  0  0  0  0  0  0
   -0.3672  -13.7517   13.1716 C   0  0  0  0  0  0  0  0  0  0  0  0
   -1.1119  -14.1246   15.0757 C   0  0  0  0  0  0  0  0  0  0  0  0
    0.4208  -13.7564   16.4826 C   0  0  0  0  0  0  0  0  0  0  0  0
    1.7730  -12.6443   15.5113 N   0  0  0  0  0  0  0  0  0  0  0  0
    3.2022  -11.6244   16.1305 C   0  0  0  0  0  0  0  0  0  0  0  0
    3.4640  -11.4172   17.2669 O   0  0  0  0  0  0  0  0  0  0  0  0
    4.2421  -11.0949   14.8879 C   0  0  0  0  0  0  0  0  0  0  0  0
    5.1979  -11.8542   14.1210 C   0  0  0  0  0  0  0  0  0  0  0  0
    6.0007  -11.3600   13.2508 N   0  0  0  0  0  0  0  0  0  0  0  0
    5.8086  -10.2404   13.7219 C   0  0  0  0  0  0  0  0  0  0  0  0
    4.4736  -10.1004   13.9758 N   0  0  0  0  0  0  0  0  0  0  0  0
   -2.8445  -14.7812   14.8034 N   0  0  0  0  0  0  0  0  0  0  0  0
   -3.9870  -14.7664   13.1902 C   0  0  0  0  0  0  0  0  0  0  0  0
   -3.5148  -14.3719   12.2203 O   0  0  0  0  0  0  0  0  0  0  0  0
   -5.7639  -15.1216   12.9044 C   0  0  0  0  0  0  0  0  0  0  0  0
   -6.5863  -13.9980   12.5826 N   0  0  0  0  0  0  0  0  0  0  0  0
   -7.8774  -14.0849   12.9386 N   0  0  0  0  0  0  0  0  0  0  0  0
   -8.0526  -15.3905   12.8853 C   0  0  0  0  0  0  0  0  0  0  0  0
   -6.8202  -16.0569   12.6460 C   0  0  0  0  0  0  0  0  0  0  0  0
   -7.0981  -17.5842   12.0044 Cl  0  0  0  0  0  0  0  0  0  0  0  0
    0.8906  -15.7936   10.3802 H   0  0  0  0  0  0  0  0  0  0  0  0
    1.3983  -15.0132   11.8374 H   0  0  0  0  0  0  0  0  0  0  0  0
    0.4669  -16.5568   11.7430 H   0  0  0  0  0  0  0  0  0  0  0  0
   -0.1959  -13.6074   11.2291 H   0  0  0  0  0  0  0  0  0  0  0  0
   -2.1028  -14.6242   10.0783 H   0  0  0  0  0  0  0  0  0  0  0  0
   -1.1345  -15.9751   10.3235 H   0  0  0  0  0  0  0  0  0  0  0  0
   -2.4562  -15.3853   11.2331 H   0  0  0  0  0  0  0  0  0  0  0  0
    0.6988  -13.5972   13.2195 H   0  0  0  0  0  0  0  0  0  0  0  0
   -0.5098  -12.6651   12.9399 H   0  0  0  0  0  0  0  0  0  0  0  0
   -1.2577  -13.2923   14.3318 H   0  0  0  0  0  0  0  0  0  0  0  0
   -0.1733  -13.2837   17.2733 H   0  0  0  0  0  0  0  0  0  0  0  0
    1.1824  -14.3405   17.0137 H   0  0  0  0  0  0  0  0  0  0  0  0
    1.7261  -12.5905   14.5071 H   0  0  0  0  0  0  0  0  0  0  0  0
    5.5869  -12.8116   14.0735 H   0  0  0  0  0  0  0  0  0  0  0  0
    6.6684   -9.5832   13.6216 H   0  0  0  0  0  0  0  0  0  0  0  0
    3.8778   -9.3123   13.7462 H   0  0  0  0  0  0  0  0  0  0  0  0
   -3.3574  -15.2375   15.5782 H   0  0  0  0  0  0  0  0  0  0  0  0
   -6.2323  -13.1090   12.2563 H   0  0  0  0  0  0  0  0  0  0  0  0
   -9.0589  -15.7908   12.9097 H   0  0  0  0  0  0  0  0  0  0  0  0
  1  2  1  0
  2  3  1  0
  2  4  1  0
  4  5  1  0
  5  6  1  0
  6  7  1  0
  7  8  1  0
  8  9  2  0
  8 10  1  0
 10 11  2  0
 11 12  1  0
 12 13  2  0
 13 14  1  0
  5 15  1  0
 15 16  1  0
 16 17  2  0
 16 18  1  0
 18 19  1  0
 19 20  1  0
 20 21  2  0
 21 22  1  0
 22 23  1  0
 14 10  1  0
 22 18  2  0
  1 24  1  0
  1 25  1  0
  1 26  1  0
  2 27  1  0
  3 28  1  0
  3 29  1  0
  3 30  1  0
  4 31  1  0
  4 32  1  0
  5 33  1  0
  6 34  1  0
  6 35  1  0
  7 36  1  0
 11 37  1  0
 13 38  1  0
 14 39  1  0
 15 40  1  0
 19 41  1  0
 21 42  1  0
M  END
>  <Energy>  (893) 
798.20644479652253

>  <compound_id>  (893) 
10074

>  <target_id>  (893) 
1

>  <reference_id>  (893) 
112

>  <inspiration_ids>  (893) 
[112, 80]

>  <energy_score>  (893) 
812.6283333377802

>  <distance_score>  (893) 
11.981468451796456

>  <path>  (893) 
/opt/xchem-fragalysis-2/maxwin/BulkDock/SCRATCH/511014/C10074-P112/C10074-P112.minimised.mol

>  <scratch_subdir>  (893) 
/opt/xchem-fragalysis-2/maxwin/BulkDock/SCRATCH/511014/C10074-P112

>  <fragmenstein_runtime>  (893) 
12.292346954345703

>  <fragmenstein_outcome>  (893) 
too moved

>  <fragmenstein_mode>  (893) 
expansion

>  <fragmenstein_error>  (893) 


$$$$
C10074-P80
     RDKit          3D

 42 43  0  0  0  0  0  0  0  0999 V2000
    2.5645  -19.3539   10.5162 C   0  0  0  0  0  0  0  0  0  0  0  0
    1.9539  -17.9796   10.8333 C   0  0  0  0  0  0  0  0  0  0  0  0
    1.4503  -17.3507    9.5412 C   0  0  0  0  0  0  0  0  0  0  0  0
    0.8834  -18.1346   11.9299 C   0  0  0  0  0  0  0  0  0  0  0  0
   -0.1288  -16.8848   12.3342 C   0  0  0  0  0  0  0  0  0  0  0  0
    1.3063  -14.8799   12.0711 C   0  0  0  0  0  0  0  0  0  0  0  0
    3.0656  -13.2198   11.6930 N   0  0  0  0  0  0  0  0  0  0  0  0
    4.7652  -12.5323   13.0056 C   0  0  0  0  0  0  0  0  0  0  0  0
    5.0559  -13.0827   14.0618 O   0  0  0  0  0  0  0  0  0  0  0  0
    5.7262  -10.9963   12.9115 C   0  0  0  0  0  0  0  0  0  0  0  0
    6.9071   -9.8085   13.6885 C   0  0  0  0  0  0  0  0  0  0  0  0
    7.0769   -8.4942   13.4865 N   0  0  0  0  0  0  0  0  0  0  0  0
    5.9065   -8.3251   13.9940 C   0  0  0  0  0  0  0  0  0  0  0  0
    5.1058  -10.0310   14.1026 N   0  0  0  0  0  0  0  0  0  0  0  0
   -1.8604  -18.1642   13.4710 N   0  0  0  0  0  0  0  0  0  0  0  0
   -3.6902  -19.1834   12.7962 C   0  0  0  0  0  0  0  0  0  0  0  0
   -3.8777  -19.2553   11.5969 O   0  0  0  0  0  0  0  0  0  0  0  0
   -5.0271  -19.7731   13.5772 C   0  0  0  0  0  0  0  0  0  0  0  0
   -5.7709  -18.6333   14.0879 N   0  0  0  0  0  0  0  0  0  0  0  0
   -6.3722  -17.9393   13.0071 N   0  0  0  0  0  0  0  0  0  0  0  0
   -6.6887  -19.0410   12.2268 C   0  0  0  0  0  0  0  0  0  0  0  0
   -6.2000  -20.2056   12.9151 C   0  0  0  0  0  0  0  0  0  0  0  0
   -7.3198  -21.7183   13.0164 Cl  0  0  0  0  0  0  0  0  0  0  0  0
    1.8167  -20.0363   10.0976 H   0  0  0  0  0  0  0  0  0  0  0  0
    3.3789  -19.2587    9.7900 H   0  0  0  0  0  0  0  0  0  0  0  0
    2.9771  -19.8142   11.4205 H   0  0  0  0  0  0  0  0  0  0  0  0
    2.7808  -17.3840   11.2147 H   0  0  0  0  0  0  0  0  0  0  0  0
    2.2767  -17.2112    8.8353 H   0  0  0  0  0  0  0  0  0  0  0  0
    0.7037  -17.9791    9.0487 H   0  0  0  0  0  0  0  0  0  0  0  0
    1.0106  -16.3712    9.7193 H   0  0  0  0  0  0  0  0  0  0  0  0
    1.3548  -18.5542   12.8154 H   0  0  0  0  0  0  0  0  0  0  0  0
    0.2809  -18.9805   11.6376 H   0  0  0  0  0  0  0  0  0  0  0  0
   -0.5741  -16.7086   11.3433 H   0  0  0  0  0  0  0  0  0  0  0  0
    0.7805  -14.2679   12.8300 H   0  0  0  0  0  0  0  0  0  0  0  0
    0.6465  -14.5573   11.2631 H   0  0  0  0  0  0  0  0  0  0  0  0
    2.9941  -12.6262   10.8459 H   0  0  0  0  0  0  0  0  0  0  0  0
    7.8286  -10.2345   14.2025 H   0  0  0  0  0  0  0  0  0  0  0  0
    5.1390   -7.5699   13.7478 H   0  0  0  0  0  0  0  0  0  0  0  0
    4.1061  -10.0007   13.9623 H   0  0  0  0  0  0  0  0  0  0  0  0
   -1.7803  -18.2490   14.5212 H   0  0  0  0  0  0  0  0  0  0  0  0
   -5.5193  -18.0773   14.8944 H   0  0  0  0  0  0  0  0  0  0  0  0
   -7.4574  -18.9421   11.4702 H   0  0  0  0  0  0  0  0  0  0  0  0
  1  2  1  0
  2  3  1  0
  2  4  1  0
  4  5  1  0
  5  6  1  0
  6  7  1  0
  7  8  1  0
  8  9  2  0
  8 10  1  0
 10 11  2  0
 11 12  1  0
 12 13  2  0
 13 14  1  0
  5 15  1  0
 15 16  1  0
 16 17  2  0
 16 18  1  0
 18 19  1  0
 19 20  1  0
 20 21  2  0
 21 22  1  0
 22 23  1  0
 14 10  1  0
 22 18  2  0
  1 24  1  0
  1 25  1  0
  1 26  1  0
  2 27  1  0
  3 28  1  0
  3 29  1  0
  3 30  1  0
  4 31  1  0
  4 32  1  0
  5 33  1  0
  6 34  1  0
  6 35  1  0
  7 36  1  0
 11 37  1  0
 13 38  1  0
 14 39  1  0
 15 40  1  0
 19 41  1  0
 21 42  1  0
M  END
>  <Energy>  (894) 
2470.8614097816676

>  <compound_id>  (894) 
10074

>  <target_id>  (894) 
1

>  <reference_id>  (894) 
80

>  <inspiration_ids>  (894) 
[112, 80]

>  <energy_score>  (894) 
2485.283298322897

>  <distance_score>  (894) 
9.709496113488463

>  <path>  (894) 
/opt/xchem-fragalysis-2/maxwin/BulkDock/SCRATCH/511014/C10074-P80/C10074-P80.minimised.mol

>  <scratch_subdir>  (894) 
/opt/xchem-fragalysis-2/maxwin/BulkDock/SCRATCH/511014/C10074-P80

>  <fragmenstein_runtime>  (894) 
14.56937313079834

>  <fragmenstein_outcome>  (894) 
too moved

>  <fragmenstein_mode>  (894) 
expansion

>  <fragmenstein_error>  (894) 


$$$$
C10075-P112
     RDKit          3D

 40 41  0  0  0  0  0  0  0  0999 V2000
    1.3891  -18.1229   10.9231 C   0  0  0  0  0  0  0  0  0  0  0  0
    0.6139  -17.0442   11.4762 O   0  0  0  0  0  0  0  0  0  0  0  0
    1.0705  -15.7939   11.0153 C   0  0  0  0  0  0  0  0  0  0  0  0
    0.9946  -14.0986   11.8919 C   0  0  0  0  0  0  0  0  0  0  0  0
    0.0168  -13.0372   12.6260 C   0  0  0  0  0  0  0  0  0  0  0  0
    1.4771  -11.5228   13.1292 C   0  0  0  0  0  0  0  0  0  0  0  0
    2.8581  -10.4200   14.2584 N   0  0  0  0  0  0  0  0  0  0  0  0
    3.3360  -10.5766   16.1703 C   0  0  0  0  0  0  0  0  0  0  0  0
    2.9096  -11.4887   16.7388 O   0  0  0  0  0  0  0  0  0  0  0  0
    3.9716   -9.6528   17.1805 C   0  0  0  0  0  0  0  0  0  0  0  0
    5.2266   -8.8847   18.2875 C   0  0  0  0  0  0  0  0  0  0  0  0
    4.6806   -7.8885   19.0729 N   0  0  0  0  0  0  0  0  0  0  0  0
    3.3897   -7.8022   18.8400 C   0  0  0  0  0  0  0  0  0  0  0  0
    2.8509   -8.7200   17.9427 N   0  0  0  0  0  0  0  0  0  0  0  0
   -0.8273  -14.2428   11.3071 N   0  0  0  0  0  0  0  0  0  0  0  0
   -2.4171  -14.8353   11.1616 C   0  0  0  0  0  0  0  0  0  0  0  0
   -3.2972  -14.6538   11.9418 O   0  0  0  0  0  0  0  0  0  0  0  0
   -3.0212  -15.7616    9.7890 C   0  0  0  0  0  0  0  0  0  0  0  0
   -2.3877  -16.8395    9.0747 N   0  0  0  0  0  0  0  0  0  0  0  0
   -3.1508  -17.6424    8.3079 N   0  0  0  0  0  0  0  0  0  0  0  0
   -4.3782  -17.2647    8.5820 C   0  0  0  0  0  0  0  0  0  0  0  0
   -4.4066  -16.1137    9.4025 C   0  0  0  0  0  0  0  0  0  0  0  0
   -6.0005  -15.5074    9.6313 Cl  0  0  0  0  0  0  0  0  0  0  0  0
    2.4603  -17.9838   11.1037 H   0  0  0  0  0  0  0  0  0  0  0  0
    1.0881  -19.0533   11.4094 H   0  0  0  0  0  0  0  0  0  0  0  0
    1.2175  -18.1954    9.8450 H   0  0  0  0  0  0  0  0  0  0  0  0
    2.0383  -15.9059   10.5108 H   0  0  0  0  0  0  0  0  0  0  0  0
    0.5148  -15.8527   10.0855 H   0  0  0  0  0  0  0  0  0  0  0  0
    1.7597  -14.0998   12.5511 H   0  0  0  0  0  0  0  0  0  0  0  0
    1.2909  -13.3577   11.1639 H   0  0  0  0  0  0  0  0  0  0  0  0
   -0.3981  -12.2375   11.9971 H   0  0  0  0  0  0  0  0  0  0  0  0
    1.2028  -10.8767   12.2595 H   0  0  0  0  0  0  0  0  0  0  0  0
    1.2011  -11.9376   14.0578 H   0  0  0  0  0  0  0  0  0  0  0  0
    3.3597   -9.6311   13.8563 H   0  0  0  0  0  0  0  0  0  0  0  0
    6.1783   -9.3577   18.5509 H   0  0  0  0  0  0  0  0  0  0  0  0
    2.7226   -7.1200   19.3531 H   0  0  0  0  0  0  0  0  0  0  0  0
    1.8694   -8.9519   17.8701 H   0  0  0  0  0  0  0  0  0  0  0  0
   -0.3080  -14.5885   10.6046 H   0  0  0  0  0  0  0  0  0  0  0  0
   -1.4537  -17.2082    9.2534 H   0  0  0  0  0  0  0  0  0  0  0  0
   -5.2082  -17.7927    8.1315 H   0  0  0  0  0  0  0  0  0  0  0  0
  1  2  1  0
  2  3  1  0
  3  4  1  0
  4  5  1  0
  5  6  1  0
  6  7  1  0
  7  8  1  0
  8  9  2  0
  8 10  1  0
 10 11  2  0
 11 12  1  0
 12 13  2  0
 13 14  1  0
  5 15  1  0
 15 16  1  0
 16 17  2  0
 16 18  1  0
 18 19  1  0
 19 20  1  0
 20 21  2  0
 21 22  1  0
 22 23  1  0
 14 10  1  0
 22 18  2  0
  1 24  1  0
  1 25  1  0
  1 26  1  0
  3 27  1  0
  3 28  1  0
  4 29  1  0
  4 30  1  0
  5 31  1  0
  6 32  1  0
  6 33  1  0
  7 34  1  0
 11 35  1  0
 13 36  1  0
 14 37  1  0
 15 38  1  0
 19 39  1  0
 21 40  1  0
M  END
>  <Energy>  (895) 
868.28041722721025

>  <compound_id>  (895) 
10075

>  <target_id>  (895) 
1

>  <reference_id>  (895) 
112

>  <inspiration_ids>  (895) 
[112, 80]

>  <energy_score>  (895) 
888.7010002574646

>  <distance_score>  (895) 
12.421406109665046

>  <path>  (895) 
/opt/xchem-fragalysis-2/maxwin/BulkDock/SCRATCH/511014/C10075-P112/C10075-P112.minimised.mol

>  <scratch_subdir>  (895) 
/opt/xchem-fragalysis-2/maxwin/BulkDock/SCRATCH/511014/C10075-P112

>  <fragmenstein_runtime>  (895) 
18.00778889656067

>  <fragmenstein_outcome>  (895) 
too moved

>  <fragmenstein_mode>  (895) 
expansion

>  <fragmenstein_error>  (895) 


$$$$
C10075-P80
     RDKit          3D

 40 41  0  0  0  0  0  0  0  0999 V2000
    1.4139  -18.1040   11.2691 C   0  0  0  0  0  0  0  0  0  0  0  0
    0.6557  -17.1682   12.0310 O   0  0  0  0  0  0  0  0  0  0  0  0
    0.2058  -16.0661   11.2924 C   0  0  0  0  0  0  0  0  0  0  0  0
   -0.4052  -14.7813   11.9929 C   0  0  0  0  0  0  0  0  0  0  0  0
   -0.7063  -14.0566   13.7162 C   0  0  0  0  0  0  0  0  0  0  0  0
   -0.2937  -12.6744   13.1948 C   0  0  0  0  0  0  0  0  0  0  0  0
    0.8887  -12.1044   13.5748 N   0  0  0  0  0  0  0  0  0  0  0  0
    1.8946  -11.1230   12.7584 C   0  0  0  0  0  0  0  0  0  0  0  0
    1.8570  -10.7483   11.5907 O   0  0  0  0  0  0  0  0  0  0  0  0
    3.3172  -10.6528   13.9117 C   0  0  0  0  0  0  0  0  0  0  0  0
    3.9039  -11.1703   15.1025 C   0  0  0  0  0  0  0  0  0  0  0  0
    4.8473  -11.9376   14.6046 N   0  0  0  0  0  0  0  0  0  0  0  0
    5.4222  -10.9754   14.0316 C   0  0  0  0  0  0  0  0  0  0  0  0
    4.4846  -10.4049   13.3976 N   0  0  0  0  0  0  0  0  0  0  0  0
   -2.0365  -14.7319   15.0634 N   0  0  0  0  0  0  0  0  0  0  0  0
   -2.2858  -14.3381   16.5406 C   0  0  0  0  0  0  0  0  0  0  0  0
   -1.7851  -13.4664   17.2153 O   0  0  0  0  0  0  0  0  0  0  0  0
   -3.4019  -15.1151   17.3103 C   0  0  0  0  0  0  0  0  0  0  0  0
   -3.7091  -14.6936   18.5916 N   0  0  0  0  0  0  0  0  0  0  0  0
   -4.6312  -15.4168   19.2557 N   0  0  0  0  0  0  0  0  0  0  0  0
   -4.9993  -16.3399   18.3771 C   0  0  0  0  0  0  0  0  0  0  0  0
   -4.2887  -16.2209   17.1682 C   0  0  0  0  0  0  0  0  0  0  0  0
   -4.6077  -17.3359   15.9144 Cl  0  0  0  0  0  0  0  0  0  0  0  0
    2.4088  -17.7014   11.0594 H   0  0  0  0  0  0  0  0  0  0  0  0
    0.9232  -18.3508   10.3256 H   0  0  0  0  0  0  0  0  0  0  0  0
    1.5290  -19.0147   11.8620 H   0  0  0  0  0  0  0  0  0  0  0  0
    1.0330  -15.7593   10.6504 H   0  0  0  0  0  0  0  0  0  0  0  0
   -0.5133  -16.4209   10.5529 H   0  0  0  0  0  0  0  0  0  0  0  0
    0.3860  -14.1081   11.6671 H   0  0  0  0  0  0  0  0  0  0  0  0
   -1.2639  -14.5276   11.3701 H   0  0  0  0  0  0  0  0  0  0  0  0
    0.1949  -14.5197   13.8270 H   0  0  0  0  0  0  0  0  0  0  0  0
   -0.3120  -12.5006   12.1133 H   0  0  0  0  0  0  0  0  0  0  0  0
   -0.8841  -11.8914   13.5632 H   0  0  0  0  0  0  0  0  0  0  0  0
    1.2559  -12.2719   14.4980 H   0  0  0  0  0  0  0  0  0  0  0  0
    3.5448  -11.3674   16.1097 H   0  0  0  0  0  0  0  0  0  0  0  0
    6.3947  -10.6340   13.9798 H   0  0  0  0  0  0  0  0  0  0  0  0
    4.6776  -10.8801   12.5679 H   0  0  0  0  0  0  0  0  0  0  0  0
   -2.5683  -15.5621   14.8447 H   0  0  0  0  0  0  0  0  0  0  0  0
   -3.2775  -13.9023   19.0610 H   0  0  0  0  0  0  0  0  0  0  0  0
   -5.7606  -17.0600   18.6491 H   0  0  0  0  0  0  0  0  0  0  0  0
  1  2  1  0
  2  3  1  0
  3  4  1  0
  4  5  1  0
  5  6  1  0
  6  7  1  0
  7  8  1  0
  8  9  2  0
  8 10  1  0
 10 11  2  0
 11 12  1  0
 12 13  2  0
 13 14  1  0
  5 15  1  0
 15 16  1  0
 16 17  2  0
 16 18  1  0
 18 19  1  0
 19 20  1  0
 20 21  2  0
 21 22  1  0
 22 23  1  0
 14 10  1  0
 22 18  2  0
  1 24  1  0
  1 25  1  0
  1 26  1  0
  3 27  1  0
  3 28  1  0
  4 29  1  0
  4 30  1  0
  5 31  1  0
  6 32  1  0
  6 33  1  0
  7 34  1  0
 11 35  1  0
 13 36  1  0
 14 37  1  0
 15 38  1  0
 19 39  1  0
 21 40  1  0
M  END
>  <Energy>  (896) 
337.46723271868632

>  <compound_id>  (896) 
10075

>  <target_id>  (896) 
1

>  <reference_id>  (896) 
80

>  <inspiration_ids>  (896) 
[112, 80]

>  <energy_score>  (896) 
357.8878157489434

>  <distance_score>  (896) 
13.324745206676493

>  <path>  (896) 
/opt/xchem-fragalysis-2/maxwin/BulkDock/SCRATCH/511014/C10075-P80/C10075-P80.minimised.mol

>  <scratch_subdir>  (896) 
/opt/xchem-fragalysis-2/maxwin/BulkDock/SCRATCH/511014/C10075-P80

>  <fragmenstein_runtime>  (896) 
22.540200233459473

>  <fragmenstein_outcome>  (896) 
too moved

>  <fragmenstein_mode>  (896) 
expansion

>  <fragmenstein_error>  (896) 


$$$$
C10080-P112
     RDKit          3D

 39 40  0  0  0  0  0  0  0  0999 V2000
    4.0182  -10.9532   10.1894 C   0  0  0  0  0  0  0  0  0  0  0  0
    4.2414  -12.2469   11.1317 N   0  0  0  0  0  0  0  0  0  0  0  0
    2.3007  -12.3378   10.8189 C   0  0  0  0  0  0  0  0  0  0  0  0
    1.3972  -14.1959   11.2498 C   0  0  0  0  0  0  0  0  0  0  0  0
    2.3892  -15.0007    9.6862 C   0  0  0  0  0  0  0  0  0  0  0  0
    0.0234  -13.8301   11.7450 C   0  0  0  0  0  0  0  0  0  0  0  0
    1.3008  -16.0330   11.2549 N   0  0  0  0  0  0  0  0  0  0  0  0
    0.9343  -16.9914   10.1977 C   0  0  0  0  0  0  0  0  0  0  0  0
    0.5233  -16.8066    9.0841 O   0  0  0  0  0  0  0  0  0  0  0  0
    1.2032  -18.4556   10.4770 C   0  0  0  0  0  0  0  0  0  0  0  0
    1.0747  -19.2838    9.3492 N   0  0  0  0  0  0  0  0  0  0  0  0
    1.1515  -20.6114    9.5543 N   0  0  0  0  0  0  0  0  0  0  0  0
    1.4279  -20.6790   10.8477 C   0  0  0  0  0  0  0  0  0  0  0  0
    1.5035  -19.3993   11.4602 C   0  0  0  0  0  0  0  0  0  0  0  0
    1.8555  -19.3782   13.1085 Cl  0  0  0  0  0  0  0  0  0  0  0  0
    5.3144  -11.8259   12.7866 C   0  0  0  0  0  0  0  0  0  0  0  0
    4.8964  -11.4563   13.8943 O   0  0  0  0  0  0  0  0  0  0  0  0
    7.1581  -12.1246   12.8804 C   0  0  0  0  0  0  0  0  0  0  0  0
    8.1100  -12.8946   13.5543 C   0  0  0  0  0  0  0  0  0  0  0  0
    9.4208  -12.7579   13.1320 N   0  0  0  0  0  0  0  0  0  0  0  0
    9.3603  -11.7423   12.3336 C   0  0  0  0  0  0  0  0  0  0  0  0
    8.1097  -11.2141   12.3770 N   0  0  0  0  0  0  0  0  0  0  0  0
    3.7116  -11.3224    9.2009 H   0  0  0  0  0  0  0  0  0  0  0  0
    4.7422  -10.2138    9.9086 H   0  0  0  0  0  0  0  0  0  0  0  0
    3.2556  -10.4008   10.7155 H   0  0  0  0  0  0  0  0  0  0  0  0
    2.4407  -12.4471    9.7302 H   0  0  0  0  0  0  0  0  0  0  0  0
    1.7246  -11.4259   11.1261 H   0  0  0  0  0  0  0  0  0  0  0  0
    3.0477  -15.8632    9.9105 H   0  0  0  0  0  0  0  0  0  0  0  0
    3.0285  -14.2214    9.2886 H   0  0  0  0  0  0  0  0  0  0  0  0
    1.7888  -15.3197    8.8417 H   0  0  0  0  0  0  0  0  0  0  0  0
    0.0517  -13.7791   12.8224 H   0  0  0  0  0  0  0  0  0  0  0  0
   -0.7457  -14.5390   11.4415 H   0  0  0  0  0  0  0  0  0  0  0  0
   -0.2378  -12.8044   11.4880 H   0  0  0  0  0  0  0  0  0  0  0  0
    1.6812  -16.5303   12.0235 H   0  0  0  0  0  0  0  0  0  0  0  0
    0.7683  -18.9459    8.4428 H   0  0  0  0  0  0  0  0  0  0  0  0
    1.5720  -21.6498   11.3051 H   0  0  0  0  0  0  0  0  0  0  0  0
    7.9563  -13.5201   14.4079 H   0  0  0  0  0  0  0  0  0  0  0  0
   10.1776  -11.3269   11.7612 H   0  0  0  0  0  0  0  0  0  0  0  0
    7.8225  -10.3944   11.8876 H   0  0  0  0  0  0  0  0  0  0  0  0
  1  2  1  0
  2  3  1  0
  3  4  1  0
  4  5  1  0
  4  6  1  0
  4  7  1  0
  7  8  1  0
  8  9  2  0
  8 10  1  0
 10 11  1  0
 11 12  1  0
 12 13  2  0
 13 14  1  0
 14 15  1  0
  2 16  1  0
 16 17  2  0
 16 18  1  0
 18 19  2  0
 19 20  1  0
 20 21  2  0
 21 22  1  0
 14 10  2  0
 22 18  1  0
  1 23  1  0
  1 24  1  0
  1 25  1  0
  3 26  1  0
  3 27  1  0
  5 28  1  0
  5 29  1  0
  5 30  1  0
  6 31  1  0
  6 32  1  0
  6 33  1  0
  7 34  1  0
 11 35  1  0
 13 36  1  0
 19 37  1  0
 21 38  1  0
 22 39  1  0
M  END
>  <Energy>  (897) 
598.43080378539491

>  <compound_id>  (897) 
10080

>  <target_id>  (897) 
1

>  <reference_id>  (897) 
112

>  <inspiration_ids>  (897) 
[112, 80]

>  <energy_score>  (897) 
597.9786897209274

>  <distance_score>  (897) 
13.374682352456757

>  <path>  (897) 
/opt/xchem-fragalysis-2/maxwin/BulkDock/SCRATCH/511014/C10080-P112/C10080-P112.minimised.mol

>  <scratch_subdir>  (897) 
/opt/xchem-fragalysis-2/maxwin/BulkDock/SCRATCH/511014/C10080-P112

>  <fragmenstein_runtime>  (897) 
15.69779896736145

>  <fragmenstein_outcome>  (897) 
too moved

>  <fragmenstein_mode>  (897) 
expansion

>  <fragmenstein_error>  (897) 


$$$$
C10080-P80
     RDKit          3D

 39 40  0  0  0  0  0  0  0  0999 V2000
    4.6742  -18.8350   13.9712 C   0  0  0  0  0  0  0  0  0  0  0  0
    5.5874  -20.0346   13.9601 N   0  0  0  0  0  0  0  0  0  0  0  0
    4.2090  -20.7976   14.0394 C   0  0  0  0  0  0  0  0  0  0  0  0
    4.2650  -22.3849   14.0534 C   0  0  0  0  0  0  0  0  0  0  0  0
    5.0813  -22.9091   15.2417 C   0  0  0  0  0  0  0  0  0  0  0  0
    4.9031  -22.8788   12.7460 C   0  0  0  0  0  0  0  0  0  0  0  0
    2.8763  -22.9575   14.1366 N   0  0  0  0  0  0  0  0  0  0  0  0
    1.9007  -22.9202   15.1948 C   0  0  0  0  0  0  0  0  0  0  0  0
    1.9164  -22.3567   16.2490 O   0  0  0  0  0  0  0  0  0  0  0  0
    0.6592  -23.6543   14.8790 C   0  0  0  0  0  0  0  0  0  0  0  0
   -0.4912  -23.4557   15.6228 N   0  0  0  0  0  0  0  0  0  0  0  0
   -1.5588  -24.1796   15.2377 N   0  0  0  0  0  0  0  0  0  0  0  0
   -1.1061  -24.8427   14.1741 C   0  0  0  0  0  0  0  0  0  0  0  0
    0.2603  -24.5774   13.9260 C   0  0  0  0  0  0  0  0  0  0  0  0
    1.1740  -25.2913   12.6862 Cl  0  0  0  0  0  0  0  0  0  0  0  0
    6.6231  -19.8744   14.9329 C   0  0  0  0  0  0  0  0  0  0  0  0
    6.6660  -20.2058   16.0857 O   0  0  0  0  0  0  0  0  0  0  0  0
    7.7820  -19.0945   14.4910 C   0  0  0  0  0  0  0  0  0  0  0  0
    8.4037  -18.8471   13.2862 C   0  0  0  0  0  0  0  0  0  0  0  0
    9.5068  -18.0264   13.4386 N   0  0  0  0  0  0  0  0  0  0  0  0
    9.5423  -17.7132   14.7118 C   0  0  0  0  0  0  0  0  0  0  0  0
    8.5297  -18.3262   15.3833 N   0  0  0  0  0  0  0  0  0  0  0  0
    4.1075  -18.6836   14.8990 H   0  0  0  0  0  0  0  0  0  0  0  0
    5.3355  -17.9587   13.9556 H   0  0  0  0  0  0  0  0  0  0  0  0
    4.0840  -18.7166   13.0519 H   0  0  0  0  0  0  0  0  0  0  0  0
    3.5699  -20.5649   13.1720 H   0  0  0  0  0  0  0  0  0  0  0  0
    3.7032  -20.5597   14.9896 H   0  0  0  0  0  0  0  0  0  0  0  0
    4.7220  -22.4923   16.1887 H   0  0  0  0  0  0  0  0  0  0  0  0
    5.0053  -24.0003   15.3175 H   0  0  0  0  0  0  0  0  0  0  0  0
    6.1432  -22.6650   15.1432 H   0  0  0  0  0  0  0  0  0  0  0  0
    5.9305  -22.5159   12.6362 H   0  0  0  0  0  0  0  0  0  0  0  0
    4.9285  -23.9741   12.7101 H   0  0  0  0  0  0  0  0  0  0  0  0
    4.3294  -22.5401   11.8757 H   0  0  0  0  0  0  0  0  0  0  0  0
    2.4907  -23.4722   13.3482 H   0  0  0  0  0  0  0  0  0  0  0  0
   -0.5858  -22.8247   16.4119 H   0  0  0  0  0  0  0  0  0  0  0  0
   -1.7768  -25.4971   13.6329 H   0  0  0  0  0  0  0  0  0  0  0  0
    8.1314  -19.2396   12.3150 H   0  0  0  0  0  0  0  0  0  0  0  0
   10.2654  -17.0703   15.1955 H   0  0  0  0  0  0  0  0  0  0  0  0
    8.3571  -18.2760   16.3775 H   0  0  0  0  0  0  0  0  0  0  0  0
  1  2  1  0
  2  3  1  0
  3  4  1  0
  4  5  1  0
  4  6  1  0
  4  7  1  0
  7  8  1  0
  8  9  2  0
  8 10  1  0
 10 11  1  0
 11 12  1  0
 12 13  2  0
 13 14  1  0
 14 15  1  0
  2 16  1  0
 16 17  2  0
 16 18  1  0
 18 19  2  0
 19 20  1  0
 20 21  2  0
 21 22  1  0
 14 10  2  0
 22 18  1  0
  1 23  1  0
  1 24  1  0
  1 25  1  0
  3 26  1  0
  3 27  1  0
  5 28  1  0
  5 29  1  0
  5 30  1  0
  6 31  1  0
  6 32  1  0
  6 33  1  0
  7 34  1  0
 11 35  1  0
 13 36  1  0
 19 37  1  0
 21 38  1  0
 22 39  1  0
M  END
>  <Energy>  (898) 
31.161387745518383

>  <compound_id>  (898) 
10080

>  <target_id>  (898) 
1

>  <reference_id>  (898) 
80

>  <inspiration_ids>  (898) 
[112, 80]

>  <energy_score>  (898) 
30.709273681061916

>  <distance_score>  (898) 
14.39925501763304

>  <path>  (898) 
/opt/xchem-fragalysis-2/maxwin/BulkDock/SCRATCH/511014/C10080-P80/C10080-P80.minimised.mol

>  <scratch_subdir>  (898) 
/opt/xchem-fragalysis-2/maxwin/BulkDock/SCRATCH/511014/C10080-P80

>  <fragmenstein_runtime>  (898) 
23.347745180130005

>  <fragmenstein_outcome>  (898) 
too moved

>  <fragmenstein_mode>  (898) 
expansion

>  <fragmenstein_error>  (898) 


$$$$
C10081-P112
     RDKit          3D

 34 35  0  0  0  0  0  0  0  0999 V2000
    2.7392  -11.6331   10.1939 O   0  0  0  0  0  0  0  0  0  0  0  0
    2.3899  -10.9115   11.0939 C   0  0  0  0  0  0  0  0  0  0  0  0
    1.2578  -11.0218   12.0354 N   0  0  0  0  0  0  0  0  0  0  0  0
    0.0617  -12.3195   12.2979 C   0  0  0  0  0  0  0  0  0  0  0  0
   -0.2000  -13.7021   13.7004 C   0  0  0  0  0  0  0  0  0  0  0  0
    0.7349  -14.1755   15.6784 C   0  0  0  0  0  0  0  0  0  0  0  0
    2.0357  -14.9082   16.4053 O   0  0  0  0  0  0  0  0  0  0  0  0
   -1.5137  -14.3388   15.1051 N   0  0  0  0  0  0  0  0  0  0  0  0
   -2.9877  -15.6449   15.0716 C   0  0  0  0  0  0  0  0  0  0  0  0
   -3.4491  -16.2644   14.1640 O   0  0  0  0  0  0  0  0  0  0  0  0
   -3.7084  -16.1505   16.4849 C   0  0  0  0  0  0  0  0  0  0  0  0
   -4.6768  -16.7008   17.3683 N   0  0  0  0  0  0  0  0  0  0  0  0
   -5.9479  -16.7724   16.9284 N   0  0  0  0  0  0  0  0  0  0  0  0
   -5.6232  -17.3616   15.7988 C   0  0  0  0  0  0  0  0  0  0  0  0
   -4.2261  -17.5161   15.8921 C   0  0  0  0  0  0  0  0  0  0  0  0
   -3.3835  -18.5815   14.8266 Cl  0  0  0  0  0  0  0  0  0  0  0  0
    3.1650   -9.6633   11.6070 C   0  0  0  0  0  0  0  0  0  0  0  0
    4.0109   -9.6427   13.0912 C   0  0  0  0  0  0  0  0  0  0  0  0
    4.2331   -8.0278   13.5486 N   0  0  0  0  0  0  0  0  0  0  0  0
    4.0415   -7.2240   12.5125 C   0  0  0  0  0  0  0  0  0  0  0  0
    3.3546   -7.8919   11.4712 N   0  0  0  0  0  0  0  0  0  0  0  0
    1.2241  -10.2270   12.5754 H   0  0  0  0  0  0  0  0  0  0  0  0
    0.1476  -12.9263   11.4191 H   0  0  0  0  0  0  0  0  0  0  0  0
   -0.7846  -11.6657   12.3156 H   0  0  0  0  0  0  0  0  0  0  0  0
   -0.1492  -14.4668   12.8638 H   0  0  0  0  0  0  0  0  0  0  0  0
    1.4019  -13.2963   15.8925 H   0  0  0  0  0  0  0  0  0  0  0  0
    0.0919  -14.0126   16.6099 H   0  0  0  0  0  0  0  0  0  0  0  0
    2.4886  -15.4737   15.7639 H   0  0  0  0  0  0  0  0  0  0  0  0
   -1.4050  -13.9087   16.0319 H   0  0  0  0  0  0  0  0  0  0  0  0
   -4.4995  -16.9507   18.3384 H   0  0  0  0  0  0  0  0  0  0  0  0
   -6.3471  -17.6661   15.0697 H   0  0  0  0  0  0  0  0  0  0  0  0
    4.3115  -10.3794   13.8288 H   0  0  0  0  0  0  0  0  0  0  0  0
    4.2211   -6.1588   12.4590 H   0  0  0  0  0  0  0  0  0  0  0  0
    2.6633   -7.3725   10.9554 H   0  0  0  0  0  0  0  0  0  0  0  0
  1  2  2  0
  2  3  1  0
  3  4  1  0
  4  5  1  0
  5  6  1  0
  6  7  1  0
  5  8  1  0
  8  9  1  0
  9 10  2  0
  9 11  1  0
 11 12  1  0
 12 13  1  0
 13 14  2  0
 14 15  1  0
 15 16  1  0
  2 17  1  0
 17 18  2  0
 18 19  1  0
 19 20  2  0
 20 21  1  0
 15 11  2  0
 21 17  1  0
  3 22  1  0
  4 23  1  0
  4 24  1  0
  5 25  1  0
  6 26  1  0
  6 27  1  0
  7 28  1  0
  8 29  1  0
 12 30  1  0
 14 31  1  0
 18 32  1  0
 20 33  1  0
 21 34  1  0
M  END
>  <Energy>  (899) 
840.73452365508433

>  <compound_id>  (899) 
10081

>  <target_id>  (899) 
1

>  <reference_id>  (899) 
112

>  <inspiration_ids>  (899) 
[112, 80]

>  <energy_score>  (899) 
861.7220939145708

>  <distance_score>  (899) 
11.819397243934755

>  <path>  (899) 
/opt/xchem-fragalysis-2/maxwin/BulkDock/SCRATCH/511014/C10081-P112/C10081-P112.minimised.mol

>  <scratch_subdir>  (899) 
/opt/xchem-fragalysis-2/maxwin/BulkDock/SCRATCH/511014/C10081-P112

>  <fragmenstein_runtime>  (899) 
12.666109085083008

>  <fragmenstein_outcome>  (899) 
too moved

>  <fragmenstein_mode>  (899) 
expansion

>  <fragmenstein_error>  (899) 


$$$$
C10081-P80
     RDKit          3D

 34 35  0  0  0  0  0  0  0  0999 V2000
    3.9567  -11.1904   14.9603 O   0  0  0  0  0  0  0  0  0  0  0  0
    3.3235  -10.6012   14.0803 C   0  0  0  0  0  0  0  0  0  0  0  0
    1.6951  -11.2555   13.2945 N   0  0  0  0  0  0  0  0  0  0  0  0
    0.5582  -12.8485   13.7251 C   0  0  0  0  0  0  0  0  0  0  0  0
   -1.1639  -13.8360   14.4822 C   0  0  0  0  0  0  0  0  0  0  0  0
   -1.7112  -13.5434   16.4807 C   0  0  0  0  0  0  0  0  0  0  0  0
   -0.8152  -13.3710   17.5875 O   0  0  0  0  0  0  0  0  0  0  0  0
   -2.1145  -15.0906   15.6871 N   0  0  0  0  0  0  0  0  0  0  0  0
   -3.3946  -16.0371   15.4463 C   0  0  0  0  0  0  0  0  0  0  0  0
   -3.9570  -16.2111   14.4594 O   0  0  0  0  0  0  0  0  0  0  0  0
   -4.1604  -16.8099   16.6513 C   0  0  0  0  0  0  0  0  0  0  0  0
   -3.8512  -18.1703   16.8595 N   0  0  0  0  0  0  0  0  0  0  0  0
   -4.4022  -18.7081   17.9598 N   0  0  0  0  0  0  0  0  0  0  0  0
   -5.4928  -17.9609   18.0841 C   0  0  0  0  0  0  0  0  0  0  0  0
   -5.4608  -16.8480   17.2052 C   0  0  0  0  0  0  0  0  0  0  0  0
   -6.8849  -15.9262   17.0343 Cl  0  0  0  0  0  0  0  0  0  0  0  0
    4.0833   -8.9385   13.7697 C   0  0  0  0  0  0  0  0  0  0  0  0
    3.7250   -7.5057   14.6896 C   0  0  0  0  0  0  0  0  0  0  0  0
    4.3647   -6.3722   14.3089 N   0  0  0  0  0  0  0  0  0  0  0  0
    4.9510   -7.0169   13.3560 C   0  0  0  0  0  0  0  0  0  0  0  0
    4.0488   -7.8988   12.9056 N   0  0  0  0  0  0  0  0  0  0  0  0
    1.4098  -10.6318   12.5273 H   0  0  0  0  0  0  0  0  0  0  0  0
   -0.1520  -12.3692   13.0243 H   0  0  0  0  0  0  0  0  0  0  0  0
    0.8530  -13.6312   12.9990 H   0  0  0  0  0  0  0  0  0  0  0  0
   -0.6936  -14.5235   13.7705 H   0  0  0  0  0  0  0  0  0  0  0  0
   -2.2516  -12.6647   16.8257 H   0  0  0  0  0  0  0  0  0  0  0  0
   -2.7134  -13.9130   16.8694 H   0  0  0  0  0  0  0  0  0  0  0  0
    0.0869  -13.3726   17.2087 H   0  0  0  0  0  0  0  0  0  0  0  0
   -1.7935  -15.2083   16.6268 H   0  0  0  0  0  0  0  0  0  0  0  0
   -3.1153  -18.6742   16.3731 H   0  0  0  0  0  0  0  0  0  0  0  0
   -6.2780  -18.2696   18.7619 H   0  0  0  0  0  0  0  0  0  0  0  0
    3.2557   -7.4599   15.7076 H   0  0  0  0  0  0  0  0  0  0  0  0
    5.9717   -7.3335   13.2722 H   0  0  0  0  0  0  0  0  0  0  0  0
    3.4525   -7.8456   12.0736 H   0  0  0  0  0  0  0  0  0  0  0  0
  1  2  2  0
  2  3  1  0
  3  4  1  0
  4  5  1  0
  5  6  1  0
  6  7  1  0
  5  8  1  0
  8  9  1  0
  9 10  2  0
  9 11  1  0
 11 12  1  0
 12 13  1  0
 13 14  2  0
 14 15  1  0
 15 16  1  0
  2 17  1  0
 17 18  2  0
 18 19  1  0
 19 20  2  0
 20 21  1  0
 15 11  2  0
 21 17  1  0
  3 22  1  0
  4 23  1  0
  4 24  1  0
  5 25  1  0
  6 26  1  0
  6 27  1  0
  7 28  1  0
  8 29  1  0
 12 30  1  0
 14 31  1  0
 18 32  1  0
 20 33  1  0
 21 34  1  0
M  END
>  <Energy>  (900) 
880.33902056153943

>  <compound_id>  (900) 
10081

>  <target_id>  (900) 
1

>  <reference_id>  (900) 
80

>  <inspiration_ids>  (900) 
[112, 80]

>  <energy_score>  (900) 
901.3265908210228

>  <distance_score>  (900) 
11.06889265497912

>  <path>  (900) 
/opt/xchem-fragalysis-2/maxwin/BulkDock/SCRATCH/511014/C10081-P80/C10081-P80.minimised.mol

>  <scratch_subdir>  (900) 
/opt/xchem-fragalysis-2/maxwin/BulkDock/SCRATCH/511014/C10081-P80

>  <fragmenstein_runtime>  (900) 
13.929746389389038

>  <fragmenstein_outcome>  (900) 
too moved

>  <fragmenstein_mode>  (900) 
expansion

>  <fragmenstein_error>  (900) 


$$$$
C10082-P112
     RDKit          3D

 40 41  0  0  0  0  0  0  0  0999 V2000
  -11.2737  -16.4403   10.0333 C   0  0  0  0  0  0  0  0  0  0  0  0
   -9.8137  -16.0751    9.8969 C   0  0  0  0  0  0  0  0  0  0  0  0
   -9.3762  -14.8749   10.7905 C   0  0  0  0  0  0  0  0  0  0  0  0
  -10.1182  -14.3967   11.5990 O   0  0  0  0  0  0  0  0  0  0  0  0
   -8.0652  -14.4748   10.3718 N   0  0  0  0  0  0  0  0  0  0  0  0
   -7.2674  -13.3196   10.7170 C   0  0  0  0  0  0  0  0  0  0  0  0
   -6.7267  -12.6489   12.1981 C   0  0  0  0  0  0  0  0  0  0  0  0
   -8.1855  -12.3523   12.8999 C   0  0  0  0  0  0  0  0  0  0  0  0
   -8.4725  -11.2261   13.7091 O   0  0  0  0  0  0  0  0  0  0  0  0
   -4.9352  -12.0598   12.3476 N   0  0  0  0  0  0  0  0  0  0  0  0
   -4.0925  -10.6082   11.7229 C   0  0  0  0  0  0  0  0  0  0  0  0
   -4.6828   -9.6975   11.1447 O   0  0  0  0  0  0  0  0  0  0  0  0
   -2.0429  -10.6174   11.8847 C   0  0  0  0  0  0  0  0  0  0  0  0
   -1.0687  -10.8086   12.9414 C   0  0  0  0  0  0  0  0  0  0  0  0
   -0.0634  -11.8228   12.7762 N   0  0  0  0  0  0  0  0  0  0  0  0
    0.3751  -11.2950   11.6922 C   0  0  0  0  0  0  0  0  0  0  0  0
   -0.8033  -11.5861   11.1381 N   0  0  0  0  0  0  0  0  0  0  0  0
   -8.9351  -17.2399    9.9562 N   0  0  0  0  0  0  0  0  0  0  0  0
   -8.4363  -17.9013   11.0408 C   0  0  0  0  0  0  0  0  0  0  0  0
   -7.5290  -18.8114   10.5549 C   0  0  0  0  0  0  0  0  0  0  0  0
   -6.5198  -19.8966   11.3570 Cl  0  0  0  0  0  0  0  0  0  0  0  0
   -7.5225  -18.5971    9.1741 C   0  0  0  0  0  0  0  0  0  0  0  0
   -8.4018  -17.6729    8.7958 N   0  0  0  0  0  0  0  0  0  0  0  0
  -11.8969  -15.6855    9.5403 H   0  0  0  0  0  0  0  0  0  0  0  0
  -11.5046  -17.4109    9.5912 H   0  0  0  0  0  0  0  0  0  0  0  0
  -11.5475  -16.4262   11.0772 H   0  0  0  0  0  0  0  0  0  0  0  0
   -9.7115  -15.6963    8.8666 H   0  0  0  0  0  0  0  0  0  0  0  0
   -7.6982  -15.1681    9.7206 H   0  0  0  0  0  0  0  0  0  0  0  0
   -6.4518  -13.6473   10.0937 H   0  0  0  0  0  0  0  0  0  0  0  0
   -7.7822  -12.5182   10.1741 H   0  0  0  0  0  0  0  0  0  0  0  0
   -6.5164  -13.6134   12.6856 H   0  0  0  0  0  0  0  0  0  0  0  0
   -8.5072  -13.2610   13.4243 H   0  0  0  0  0  0  0  0  0  0  0  0
   -8.9299  -12.2763   12.0981 H   0  0  0  0  0  0  0  0  0  0  0  0
   -9.4161  -11.2763   13.9408 H   0  0  0  0  0  0  0  0  0  0  0  0
   -4.2423  -12.7116   12.7017 H   0  0  0  0  0  0  0  0  0  0  0  0
   -1.2846  -10.3158   13.8939 H   0  0  0  0  0  0  0  0  0  0  0  0
    1.3008  -10.8907   11.3149 H   0  0  0  0  0  0  0  0  0  0  0  0
   -0.9311  -12.5368   11.4114 H   0  0  0  0  0  0  0  0  0  0  0  0
   -8.7392  -17.6279   12.0351 H   0  0  0  0  0  0  0  0  0  0  0  0
   -6.8962  -19.0438    8.4170 H   0  0  0  0  0  0  0  0  0  0  0  0
  1  2  1  0
  2  3  1  0
  3  4  2  0
  3  5  1  0
  5  6  1  0
  6  7  1  0
  7  8  1  0
  8  9  1  0
  7 10  1  0
 10 11  1  0
 11 12  2  0
 11 13  1  0
 13 14  2  0
 14 15  1  0
 15 16  2  0
 16 17  1  0
  2 18  1  0
 18 19  1  0
 19 20  2  0
 20 21  1  0
 20 22  1  0
 22 23  2  0
 17 13  1  0
 23 18  1  0
  1 24  1  0
  1 25  1  0
  1 26  1  0
  2 27  1  0
  5 28  1  0
  6 29  1  0
  6 30  1  0
  7 31  1  0
  8 32  1  0
  8 33  1  0
  9 34  1  0
 10 35  1  0
 14 36  1  0
 16 37  1  0
 17 38  1  0
 19 39  1  0
 22 40  1  0
M  END
>  <Energy>  (901) 
415.3307315804322

>  <compound_id>  (901) 
10082

>  <target_id>  (901) 
1

>  <reference_id>  (901) 
112

>  <inspiration_ids>  (901) 
[112, 80]

>  <energy_score>  (901) 
383.0337830498886

>  <distance_score>  (901) 
13.09791092288444

>  <path>  (901) 
/opt/xchem-fragalysis-2/maxwin/BulkDock/SCRATCH/511014/C10082-P112/C10082-P112.minimised.mol

>  <scratch_subdir>  (901) 
/opt/xchem-fragalysis-2/maxwin/BulkDock/SCRATCH/511014/C10082-P112

>  <fragmenstein_runtime>  (901) 
18.07245969772339

>  <fragmenstein_outcome>  (901) 
too moved

>  <fragmenstein_mode>  (901) 
expansion

>  <fragmenstein_error>  (901) 


$$$$
C10082-P80
     RDKit          3D

 40 41  0  0  0  0  0  0  0  0999 V2000
   -3.3342  -19.4849    9.6658 C   0  0  0  0  0  0  0  0  0  0  0  0
   -1.8505  -19.8837    9.8100 C   0  0  0  0  0  0  0  0  0  0  0  0
   -0.8389  -18.6550    9.7661 C   0  0  0  0  0  0  0  0  0  0  0  0
   -0.7103  -18.1753    8.6696 O   0  0  0  0  0  0  0  0  0  0  0  0
   -0.3051  -18.2399   11.0429 N   0  0  0  0  0  0  0  0  0  0  0  0
    0.5524  -17.0813   11.4139 C   0  0  0  0  0  0  0  0  0  0  0  0
   -0.0073  -15.5005   11.5687 C   0  0  0  0  0  0  0  0  0  0  0  0
   -1.2213  -15.1855   10.7757 C   0  0  0  0  0  0  0  0  0  0  0  0
   -2.5957  -15.0517   10.9200 O   0  0  0  0  0  0  0  0  0  0  0  0
    0.4195  -14.4995   12.6452 N   0  0  0  0  0  0  0  0  0  0  0  0
    0.3115  -13.0215   12.7008 C   0  0  0  0  0  0  0  0  0  0  0  0
   -0.2115  -12.2526   11.9503 O   0  0  0  0  0  0  0  0  0  0  0  0
    1.1464  -12.2739   13.9406 C   0  0  0  0  0  0  0  0  0  0  0  0
    1.8407  -12.5915   15.2191 C   0  0  0  0  0  0  0  0  0  0  0  0
    3.4982  -11.6885   15.5130 N   0  0  0  0  0  0  0  0  0  0  0  0
    3.6796  -10.7903   14.4993 C   0  0  0  0  0  0  0  0  0  0  0  0
    2.2567  -11.0302   13.5119 N   0  0  0  0  0  0  0  0  0  0  0  0
   -1.7512  -20.9192   10.8547 N   0  0  0  0  0  0  0  0  0  0  0  0
   -2.0527  -22.2482   10.6608 C   0  0  0  0  0  0  0  0  0  0  0  0
   -2.0894  -22.8241   11.9038 C   0  0  0  0  0  0  0  0  0  0  0  0
   -2.3686  -24.4443   12.2979 Cl  0  0  0  0  0  0  0  0  0  0  0  0
   -1.8294  -21.7649   12.7911 C   0  0  0  0  0  0  0  0  0  0  0  0
   -1.5707  -20.6073   12.1593 N   0  0  0  0  0  0  0  0  0  0  0  0
   -3.8600  -20.2171    9.0421 H   0  0  0  0  0  0  0  0  0  0  0  0
   -3.8449  -19.4756   10.6296 H   0  0  0  0  0  0  0  0  0  0  0  0
   -3.4441  -18.5038    9.1944 H   0  0  0  0  0  0  0  0  0  0  0  0
   -1.5815  -20.4352    8.8944 H   0  0  0  0  0  0  0  0  0  0  0  0
   -0.5543  -18.9375   11.7508 H   0  0  0  0  0  0  0  0  0  0  0  0
    1.2948  -17.0593   10.6025 H   0  0  0  0  0  0  0  0  0  0  0  0
    1.0998  -17.3899   12.2916 H   0  0  0  0  0  0  0  0  0  0  0  0
    0.7664  -15.1933   10.8909 H   0  0  0  0  0  0  0  0  0  0  0  0
   -1.1688  -15.9265    9.9977 H   0  0  0  0  0  0  0  0  0  0  0  0
   -0.9713  -14.1794   10.6289 H   0  0  0  0  0  0  0  0  0  0  0  0
   -2.8475  -14.7641   11.8160 H   0  0  0  0  0  0  0  0  0  0  0  0
    0.9816  -14.8052   13.3726 H   0  0  0  0  0  0  0  0  0  0  0  0
    1.5101  -13.2662   16.0196 H   0  0  0  0  0  0  0  0  0  0  0  0
    4.4237  -10.1062   14.1239 H   0  0  0  0  0  0  0  0  0  0  0  0
    2.2342  -10.6486   12.5686 H   0  0  0  0  0  0  0  0  0  0  0  0
   -2.2341  -22.6541    9.6763 H   0  0  0  0  0  0  0  0  0  0  0  0
   -1.8040  -21.7940   13.8722 H   0  0  0  0  0  0  0  0  0  0  0  0
  1  2  1  0
  2  3  1  0
  3  4  2  0
  3  5  1  0
  5  6  1  0
  6  7  1  0
  7  8  1  0
  8  9  1  0
  7 10  1  0
 10 11  1  0
 11 12  2  0
 11 13  1  0
 13 14  2  0
 14 15  1  0
 15 16  2  0
 16 17  1  0
  2 18  1  0
 18 19  1  0
 19 20  2  0
 20 21  1  0
 20 22  1  0
 22 23  2  0
 17 13  1  0
 23 18  1  0
  1 24  1  0
  1 25  1  0
  1 26  1  0
  2 27  1  0
  5 28  1  0
  6 29  1  0
  6 30  1  0
  7 31  1  0
  8 32  1  0
  8 33  1  0
  9 34  1  0
 10 35  1  0
 14 36  1  0
 16 37  1  0
 17 38  1  0
 19 39  1  0
 22 40  1  0
M  END
>  <Energy>  (902) 
253.36034921043873

>  <compound_id>  (902) 
10082

>  <target_id>  (902) 
1

>  <reference_id>  (902) 
80

>  <inspiration_ids>  (902) 
[112, 80]

>  <energy_score>  (902) 
221.06340067990453

>  <distance_score>  (902) 
13.701531547930186

>  <path>  (902) 
/opt/xchem-fragalysis-2/maxwin/BulkDock/SCRATCH/511014/C10082-P80/C10082-P80.minimised.mol

>  <scratch_subdir>  (902) 
/opt/xchem-fragalysis-2/maxwin/BulkDock/SCRATCH/511014/C10082-P80

>  <fragmenstein_runtime>  (902) 
14.985015869140625

>  <fragmenstein_outcome>  (902) 
too moved

>  <fragmenstein_mode>  (902) 
expansion

>  <fragmenstein_error>  (902) 


$$$$
C17599-P24
     RDKit          3D

 39 42  0  0  0  0  0  0  0  0999 V2000
  -10.2933   -8.9641    0.0240 C   0  0  0  0  0  0  0  0  0  0  0  0
  -10.1678  -10.4022    0.2450 N   0  0  0  0  0  0  0  0  0  0  0  0
  -11.2235  -11.2684   -0.2660 C   0  0  0  0  0  0  0  0  0  0  0  0
  -11.1165  -12.7372    0.2299 C   0  0  0  0  0  0  0  0  0  0  0  0
   -9.7750  -13.3589    0.0901 N   0  0  0  0  0  0  0  0  0  0  0  0
   -9.6923  -14.5739    0.9774 C   0  0  0  0  0  0  0  0  0  0  0  0
  -10.7987  -15.6246    0.7213 C   0  0  0  0  0  0  0  0  0  0  0  0
   -9.7824  -16.6438    0.8690 N   0  0  0  0  0  0  0  0  0  0  0  0
   -9.7891  -17.5887    1.8500 C   0  0  0  0  0  0  0  0  0  0  0  0
  -10.8099  -17.9799    2.5935 N   0  0  0  0  0  0  0  0  0  0  0  0
  -10.3153  -19.0009    3.3675 C   0  0  0  0  0  0  0  0  0  0  0  0
  -10.9253  -19.8053    4.3412 C   0  0  0  0  0  0  0  0  0  0  0  0
  -10.1587  -20.7998    4.9667 C   0  0  0  0  0  0  0  0  0  0  0  0
   -8.8219  -20.9989    4.6101 C   0  0  0  0  0  0  0  0  0  0  0  0
   -8.1930  -20.1925    3.6475 C   0  0  0  0  0  0  0  0  0  0  0  0
   -8.9821  -19.2051    3.0655 C   0  0  0  0  0  0  0  0  0  0  0  0
   -8.6255  -18.2839    2.1119 O   0  0  0  0  0  0  0  0  0  0  0  0
   -8.7437  -15.6996    0.4983 C   0  0  0  0  0  0  0  0  0  0  0  0
   -8.7371  -12.4013    0.5720 C   0  0  0  0  0  0  0  0  0  0  0  0
   -8.9053  -10.9637    0.0465 C   0  0  0  0  0  0  0  0  0  0  0  0
   -7.9787  -10.3129   -0.4359 O   0  0  0  0  0  0  0  0  0  0  0  0
  -10.2421   -8.7579   -1.0494 H   0  0  0  0  0  0  0  0  0  0  0  0
   -9.4773   -8.4398    0.5288 H   0  0  0  0  0  0  0  0  0  0  0  0
  -11.2496   -8.6226    0.4283 H   0  0  0  0  0  0  0  0  0  0  0  0
  -11.1619  -11.2543   -1.3617 H   0  0  0  0  0  0  0  0  0  0  0  0
  -12.1947  -10.8542    0.0269 H   0  0  0  0  0  0  0  0  0  0  0  0
  -11.4642  -12.8100    1.2621 H   0  0  0  0  0  0  0  0  0  0  0  0
  -11.8325  -13.3233   -0.3595 H   0  0  0  0  0  0  0  0  0  0  0  0
   -9.5046  -14.3450    2.0217 H   0  0  0  0  0  0  0  0  0  0  0  0
  -11.5963  -15.6552    1.4688 H   0  0  0  0  0  0  0  0  0  0  0  0
  -11.2308  -15.6575   -0.2854 H   0  0  0  0  0  0  0  0  0  0  0  0
  -11.9706  -19.6573    4.5891 H   0  0  0  0  0  0  0  0  0  0  0  0
  -10.6178  -21.4340    5.7212 H   0  0  0  0  0  0  0  0  0  0  0  0
   -8.2558  -21.7974    5.0860 H   0  0  0  0  0  0  0  0  0  0  0  0
   -7.1581  -20.3350    3.3618 H   0  0  0  0  0  0  0  0  0  0  0  0
   -7.8166  -15.8108    1.0668 H   0  0  0  0  0  0  0  0  0  0  0  0
   -8.5374  -15.7407   -0.5766 H   0  0  0  0  0  0  0  0  0  0  0  0
   -7.7652  -12.7703    0.2309 H   0  0  0  0  0  0  0  0  0  0  0  0
   -8.7159  -12.3346    1.6659 H   0  0  0  0  0  0  0  0  0  0  0  0
  1  2  1  0
  2  3  1  0
  3  4  1  0
  4  5  1  0
  5  6  1  0
  6  7  1  0
  7  8  1  0
  8  9  1  0
  9 10  2  0
 10 11  1  0
 11 12  2  0
 12 13  1  0
 13 14  2  0
 14 15  1  0
 15 16  2  0
 16 17  1  0
  8 18  1  0
  5 19  1  0
 19 20  1  0
 20 21  2  0
 20  2  1  0
 18  6  1  0
 17  9  1  0
 16 11  1  0
  1 22  1  0
  1 23  1  0
  1 24  1  0
  3 25  1  0
  3 26  1  0
  4 27  1  0
  4 28  1  0
  6 29  1  0
  7 30  1  0
  7 31  1  0
 12 32  1  0
 13 33  1  0
 14 34  1  0
 15 35  1  0
 18 36  1  0
 18 37  1  0
 19 38  1  0
 19 39  1  0
M  END
>  <Energy>  (903) 
104.24626737374651

>  <compound_id>  (903) 
17599

>  <target_id>  (903) 
1

>  <reference_id>  (903) 
24

>  <inspiration_ids>  (903) 
[24, 2]

>  <energy_score>  (903) 
-82.85180917115743

>  <distance_score>  (903) 
9.46371528871205

>  <path>  (903) 
/opt/xchem-fragalysis-2/maxwin/BulkDock/SCRATCH/511014/C17599-P24/C17599-P24.minimised.mol

>  <scratch_subdir>  (903) 
/opt/xchem-fragalysis-2/maxwin/BulkDock/SCRATCH/511014/C17599-P24

>  <fragmenstein_runtime>  (903) 
12.099400520324707

>  <fragmenstein_outcome>  (903) 
too moved

>  <fragmenstein_mode>  (903) 
expansion

>  <fragmenstein_error>  (903) 


$$$$
C17599-P2
     RDKit          3D

 39 42  0  0  0  0  0  0  0  0999 V2000
  -10.2438   -7.2548    1.2069 C   0  0  0  0  0  0  0  0  0  0  0  0
  -10.1980   -8.0990    2.3862 N   0  0  0  0  0  0  0  0  0  0  0  0
  -10.4908   -7.3177    3.8977 C   0  0  0  0  0  0  0  0  0  0  0  0
  -10.1681   -8.4334    5.4908 C   0  0  0  0  0  0  0  0  0  0  0  0
   -9.6750  -10.3548    5.6931 N   0  0  0  0  0  0  0  0  0  0  0  0
   -9.1081  -11.2753    7.2971 C   0  0  0  0  0  0  0  0  0  0  0  0
   -9.8205  -12.7231    8.5400 C   0  0  0  0  0  0  0  0  0  0  0  0
  -10.3606  -13.4849    7.2554 N   0  0  0  0  0  0  0  0  0  0  0  0
  -11.7037  -14.4527    6.4596 C   0  0  0  0  0  0  0  0  0  0  0  0
  -11.9044  -15.7395    6.5448 N   0  0  0  0  0  0  0  0  0  0  0  0
  -12.4181  -16.1463    5.3235 C   0  0  0  0  0  0  0  0  0  0  0  0
  -12.5126  -17.4020    4.6920 C   0  0  0  0  0  0  0  0  0  0  0  0
  -13.1015  -17.4974    3.4335 C   0  0  0  0  0  0  0  0  0  0  0  0
  -13.5658  -16.3503    2.7956 C   0  0  0  0  0  0  0  0  0  0  0  0
  -13.4282  -15.0822    3.3759 C   0  0  0  0  0  0  0  0  0  0  0  0
  -12.8284  -15.0458    4.6244 C   0  0  0  0  0  0  0  0  0  0  0  0
  -12.4149  -13.9477    5.3117 O   0  0  0  0  0  0  0  0  0  0  0  0
   -9.1208  -13.1105    6.8551 C   0  0  0  0  0  0  0  0  0  0  0  0
   -9.4843  -10.7652    3.8492 C   0  0  0  0  0  0  0  0  0  0  0  0
   -9.6180   -9.6513    2.2034 C   0  0  0  0  0  0  0  0  0  0  0  0
   -9.3412  -10.0612    1.0695 O   0  0  0  0  0  0  0  0  0  0  0  0
   -9.4686   -6.4892    1.2875 H   0  0  0  0  0  0  0  0  0  0  0  0
  -10.0833   -7.8415    0.3008 H   0  0  0  0  0  0  0  0  0  0  0  0
  -11.2256   -6.7770    1.1639 H   0  0  0  0  0  0  0  0  0  0  0  0
  -10.2748   -6.2504    3.9033 H   0  0  0  0  0  0  0  0  0  0  0  0
  -11.5752   -7.0585    3.7952 H   0  0  0  0  0  0  0  0  0  0  0  0
   -9.9278   -7.7138    6.2586 H   0  0  0  0  0  0  0  0  0  0  0  0
  -11.0752   -8.3092    6.0818 H   0  0  0  0  0  0  0  0  0  0  0  0
   -9.4102  -10.5043    7.9757 H   0  0  0  0  0  0  0  0  0  0  0  0
  -10.4904  -12.3191    9.3150 H   0  0  0  0  0  0  0  0  0  0  0  0
   -9.1924  -13.3631    9.1671 H   0  0  0  0  0  0  0  0  0  0  0  0
  -12.1150  -18.2889    5.1619 H   0  0  0  0  0  0  0  0  0  0  0  0
  -13.1916  -18.4670    2.9519 H   0  0  0  0  0  0  0  0  0  0  0  0
  -14.0195  -16.4339    1.8100 H   0  0  0  0  0  0  0  0  0  0  0  0
  -13.7237  -14.1762    2.8619 H   0  0  0  0  0  0  0  0  0  0  0  0
   -8.6808  -13.9033    7.2801 H   0  0  0  0  0  0  0  0  0  0  0  0
   -8.6366  -13.3914    5.9158 H   0  0  0  0  0  0  0  0  0  0  0  0
   -9.7384   -9.7033    3.5767 H   0  0  0  0  0  0  0  0  0  0  0  0
   -9.6091   -9.8668    4.4626 H   0  0  0  0  0  0  0  0  0  0  0  0
  1  2  1  0
  2  3  1  0
  3  4  1  0
  4  5  1  0
  5  6  1  0
  6  7  1  0
  7  8  1  0
  8  9  1  0
  9 10  2  0
 10 11  1  0
 11 12  2  0
 12 13  1  0
 13 14  2  0
 14 15  1  0
 15 16  2  0
 16 17  1  0
  8 18  1  0
  5 19  1  0
 19 20  1  0
 20 21  2  0
 20  2  1  0
 18  6  1  0
 17  9  1  0
 16 11  1  0
  1 22  1  0
  1 23  1  0
  1 24  1  0
  3 25  1  0
  3 26  1  0
  4 27  1  0
  4 28  1  0
  6 29  1  0
  7 30  1  0
  7 31  1  0
 12 32  1  0
 13 33  1  0
 14 34  1  0
 15 35  1  0
 18 36  1  0
 18 37  1  0
 19 38  1  0
 19 39  1  0
M  END
>  <Energy>  (904) 
1028.1845999255979

>  <compound_id>  (904) 
17599

>  <target_id>  (904) 
1

>  <reference_id>  (904) 
2

>  <inspiration_ids>  (904) 
[24, 2]

>  <energy_score>  (904) 
841.0865233806829

>  <distance_score>  (904) 
8.553942485614082

>  <path>  (904) 
/opt/xchem-fragalysis-2/maxwin/BulkDock/SCRATCH/511014/C17599-P2/C17599-P2.minimised.mol

>  <scratch_subdir>  (904) 
/opt/xchem-fragalysis-2/maxwin/BulkDock/SCRATCH/511014/C17599-P2

>  <fragmenstein_runtime>  (904) 
9.42477297782898

>  <fragmenstein_outcome>  (904) 
too moved

>  <fragmenstein_mode>  (904) 
expansion

>  <fragmenstein_error>  (904) 


$$$$
C17616-P24
     RDKit          3D

 49 51  0  0  0  0  0  0  0  0999 V2000
   -7.9917   -2.2869    6.8502 C   0  0  0  0  0  0  0  0  0  0  0  0
   -8.1700   -3.7373    6.3014 C   0  0  0  0  0  0  0  0  0  0  0  0
   -6.9766   -4.4579    6.8141 C   0  0  0  0  0  0  0  0  0  0  0  0
   -9.4655   -4.4142    6.7230 N   0  0  0  0  0  0  0  0  0  0  0  0
  -10.5280   -3.4384    6.3166 C   0  0  0  0  0  0  0  0  0  0  0  0
  -10.4057   -3.0402    4.8534 C   0  0  0  0  0  0  0  0  0  0  0  0
  -10.2813   -4.2029    4.0055 N   0  0  0  0  0  0  0  0  0  0  0  0
  -10.4121   -5.4952    4.4756 C   0  0  0  0  0  0  0  0  0  0  0  0
  -10.7973   -6.2961    3.6109 O   0  0  0  0  0  0  0  0  0  0  0  0
   -9.8288   -5.9603    6.0680 C   0  0  0  0  0  0  0  0  0  0  0  0
   -9.9668   -7.9564    6.2701 C   0  0  0  0  0  0  0  0  0  0  0  0
   -9.8739   -9.5742    7.5424 C   0  0  0  0  0  0  0  0  0  0  0  0
  -10.0616   -9.3782    8.7083 O   0  0  0  0  0  0  0  0  0  0  0  0
   -9.6927  -11.1855    6.5922 N   0  0  0  0  0  0  0  0  0  0  0  0
   -9.9594  -13.1347    7.2010 C   0  0  0  0  0  0  0  0  0  0  0  0
  -11.9079  -14.1713    6.6486 C   0  0  0  0  0  0  0  0  0  0  0  0
  -12.5700  -15.0821    5.3296 C   0  0  0  0  0  0  0  0  0  0  0  0
  -11.9776  -16.1212    4.7472 N   0  0  0  0  0  0  0  0  0  0  0  0
  -12.9705  -16.9535    4.3604 C   0  0  0  0  0  0  0  0  0  0  0  0
  -12.9020  -18.2553    3.8493 C   0  0  0  0  0  0  0  0  0  0  0  0
  -14.0982  -18.9656    3.7308 C   0  0  0  0  0  0  0  0  0  0  0  0
  -15.3191  -18.3679    4.0675 C   0  0  0  0  0  0  0  0  0  0  0  0
  -15.3970  -17.0412    4.5256 C   0  0  0  0  0  0  0  0  0  0  0  0
  -14.1863  -16.3787    4.6750 C   0  0  0  0  0  0  0  0  0  0  0  0
  -13.9484  -15.1501    5.2582 O   0  0  0  0  0  0  0  0  0  0  0  0
   -6.9895   -1.9018    6.6266 H   0  0  0  0  0  0  0  0  0  0  0  0
   -8.6854   -1.5634    6.4162 H   0  0  0  0  0  0  0  0  0  0  0  0
   -8.1199   -2.2660    7.9388 H   0  0  0  0  0  0  0  0  0  0  0  0
   -8.0572   -3.7138    5.2133 H   0  0  0  0  0  0  0  0  0  0  0  0
   -7.1308   -4.6738    7.8716 H   0  0  0  0  0  0  0  0  0  0  0  0
   -6.8518   -5.3759    6.2522 H   0  0  0  0  0  0  0  0  0  0  0  0
   -6.0560   -3.8764    6.6957 H   0  0  0  0  0  0  0  0  0  0  0  0
  -11.5265   -3.8269    6.4948 H   0  0  0  0  0  0  0  0  0  0  0  0
  -10.4973   -2.5495    6.9560 H   0  0  0  0  0  0  0  0  0  0  0  0
   -9.5549   -2.3938    4.6234 H   0  0  0  0  0  0  0  0  0  0  0  0
  -11.2614   -2.4353    4.5405 H   0  0  0  0  0  0  0  0  0  0  0  0
  -10.7699   -4.1242    3.1241 H   0  0  0  0  0  0  0  0  0  0  0  0
   -8.7856   -5.9912    6.2582 H   0  0  0  0  0  0  0  0  0  0  0  0
  -11.0409   -8.0440    6.3393 H   0  0  0  0  0  0  0  0  0  0  0  0
  -10.0643   -8.3446    5.2486 H   0  0  0  0  0  0  0  0  0  0  0  0
   -9.6250  -11.0167    5.5891 H   0  0  0  0  0  0  0  0  0  0  0  0
   -9.8063  -13.0702    8.3081 H   0  0  0  0  0  0  0  0  0  0  0  0
   -9.0393  -13.5647    6.8164 H   0  0  0  0  0  0  0  0  0  0  0  0
  -11.6079  -15.2888    6.9259 H   0  0  0  0  0  0  0  0  0  0  0  0
  -12.8508  -14.2421    7.1818 H   0  0  0  0  0  0  0  0  0  0  0  0
  -11.9454  -18.7114    3.6273 H   0  0  0  0  0  0  0  0  0  0  0  0
  -14.0809  -19.9937    3.3777 H   0  0  0  0  0  0  0  0  0  0  0  0
  -16.2371  -18.9451    3.9715 H   0  0  0  0  0  0  0  0  0  0  0  0
  -16.3339  -16.5832    4.8134 H   0  0  0  0  0  0  0  0  0  0  0  0
  1  2  1  0
  2  3  1  0
  2  4  1  0
  4  5  1  0
  5  6  1  0
  6  7  1  0
  7  8  1  0
  8  9  2  0
  8 10  1  0
 10 11  1  0
 11 12  1  0
 12 13  2  0
 12 14  1  0
 14 15  1  0
 15 16  1  0
 16 17  1  0
 17 18  2  0
 18 19  1  0
 19 20  2  0
 20 21  1  0
 21 22  2  0
 22 23  1  0
 23 24  2  0
 24 25  1  0
 10  4  1  0
 25 17  1  0
 24 19  1  0
  1 26  1  0
  1 27  1  0
  1 28  1  0
  2 29  1  0
  3 30  1  0
  3 31  1  0
  3 32  1  0
  5 33  1  0
  5 34  1  0
  6 35  1  0
  6 36  1  0
  7 37  1  0
 10 38  1  0
 11 39  1  0
 11 40  1  0
 14 41  1  0
 15 42  1  0
 15 43  1  0
 16 44  1  0
 16 45  1  0
 20 46  1  0
 21 47  1  0
 22 48  1  0
 23 49  1  0
M  END
>  <Energy>  (905) 
711.18124124476401

>  <compound_id>  (905) 
17616

>  <target_id>  (905) 
1

>  <reference_id>  (905) 
24

>  <inspiration_ids>  (905) 
[24, 2]

>  <energy_score>  (905) 
591.2530545477554

>  <distance_score>  (905) 
6.676495785862854

>  <path>  (905) 
/opt/xchem-fragalysis-2/maxwin/BulkDock/SCRATCH/511014/C17616-P24/C17616-P24.minimised.mol

>  <scratch_subdir>  (905) 
/opt/xchem-fragalysis-2/maxwin/BulkDock/SCRATCH/511014/C17616-P24

>  <fragmenstein_runtime>  (905) 
11.471215009689331

>  <fragmenstein_outcome>  (905) 
too moved

>  <fragmenstein_mode>  (905) 
expansion

>  <fragmenstein_error>  (905) 


$$$$
C17616-P2
     RDKit          3D

 49 51  0  0  0  0  0  0  0  0999 V2000
   -7.5975   -4.1954    5.4261 C   0  0  0  0  0  0  0  0  0  0  0  0
   -8.5305   -5.0866    6.3441 C   0  0  0  0  0  0  0  0  0  0  0  0
   -8.8170   -4.0612    7.4989 C   0  0  0  0  0  0  0  0  0  0  0  0
   -9.9101   -5.8614    5.7846 N   0  0  0  0  0  0  0  0  0  0  0  0
  -10.4752   -4.6383    5.0886 C   0  0  0  0  0  0  0  0  0  0  0  0
  -10.3993   -4.4979    3.5690 C   0  0  0  0  0  0  0  0  0  0  0  0
  -10.9805   -5.6001    2.8534 N   0  0  0  0  0  0  0  0  0  0  0  0
  -11.4783   -6.6500    3.6193 C   0  0  0  0  0  0  0  0  0  0  0  0
  -12.6111   -7.0325    3.3226 O   0  0  0  0  0  0  0  0  0  0  0  0
  -10.3200   -7.4519    4.7617 C   0  0  0  0  0  0  0  0  0  0  0  0
   -9.8264   -9.5148    4.7904 C   0  0  0  0  0  0  0  0  0  0  0  0
   -9.8421  -11.5007    3.9967 C   0  0  0  0  0  0  0  0  0  0  0  0
   -8.8768  -11.9535    3.4301 O   0  0  0  0  0  0  0  0  0  0  0  0
  -11.5768  -12.5501    4.0509 N   0  0  0  0  0  0  0  0  0  0  0  0
  -12.0503  -14.0785    3.2728 C   0  0  0  0  0  0  0  0  0  0  0  0
  -12.5485  -15.2508    4.1967 C   0  0  0  0  0  0  0  0  0  0  0  0
  -12.1623  -16.6652    3.7985 C   0  0  0  0  0  0  0  0  0  0  0  0
  -11.1451  -17.1037    3.0728 N   0  0  0  0  0  0  0  0  0  0  0  0
  -10.9961  -18.4175    3.4709 C   0  0  0  0  0  0  0  0  0  0  0  0
   -9.9711  -19.3491    3.2465 C   0  0  0  0  0  0  0  0  0  0  0  0
  -10.0771  -20.6202    3.8386 C   0  0  0  0  0  0  0  0  0  0  0  0
  -11.2042  -20.9762    4.5868 C   0  0  0  0  0  0  0  0  0  0  0  0
  -12.2513  -20.0684    4.7850 C   0  0  0  0  0  0  0  0  0  0  0  0
  -12.0697  -18.7925    4.2536 C   0  0  0  0  0  0  0  0  0  0  0  0
  -12.8489  -17.6814    4.4357 O   0  0  0  0  0  0  0  0  0  0  0  0
   -8.1113   -3.3588    4.9467 H   0  0  0  0  0  0  0  0  0  0  0  0
   -6.8215   -3.7508    6.0585 H   0  0  0  0  0  0  0  0  0  0  0  0
   -7.0406   -4.7421    4.6648 H   0  0  0  0  0  0  0  0  0  0  0  0
   -7.8547   -5.7686    6.8267 H   0  0  0  0  0  0  0  0  0  0  0  0
   -9.1449   -4.5408    8.4102 H   0  0  0  0  0  0  0  0  0  0  0  0
   -7.9065   -3.5288    7.7942 H   0  0  0  0  0  0  0  0  0  0  0  0
   -9.5467   -3.2880    7.2483 H   0  0  0  0  0  0  0  0  0  0  0  0
  -10.0514   -3.6914    5.4239 H   0  0  0  0  0  0  0  0  0  0  0  0
  -11.4321   -4.4951    5.5518 H   0  0  0  0  0  0  0  0  0  0  0  0
   -9.3897   -4.3237    3.1909 H   0  0  0  0  0  0  0  0  0  0  0  0
  -10.9168   -3.5847    3.2474 H   0  0  0  0  0  0  0  0  0  0  0  0
  -11.7333   -5.2924    2.2513 H   0  0  0  0  0  0  0  0  0  0  0  0
   -9.9219   -7.3469    3.7278 H   0  0  0  0  0  0  0  0  0  0  0  0
   -9.6375   -9.9795    5.7214 H   0  0  0  0  0  0  0  0  0  0  0  0
   -9.7052   -9.4171    3.6865 H   0  0  0  0  0  0  0  0  0  0  0  0
  -12.3391  -11.9580    4.5044 H   0  0  0  0  0  0  0  0  0  0  0  0
  -12.9749  -13.6922    2.8150 H   0  0  0  0  0  0  0  0  0  0  0  0
  -11.4858  -14.3737    2.3733 H   0  0  0  0  0  0  0  0  0  0  0  0
  -13.6456  -15.2100    4.2228 H   0  0  0  0  0  0  0  0  0  0  0  0
  -12.2267  -15.0917    5.2301 H   0  0  0  0  0  0  0  0  0  0  0  0
   -9.1112  -19.0785    2.6451 H   0  0  0  0  0  0  0  0  0  0  0  0
   -9.2811  -21.3460    3.6873 H   0  0  0  0  0  0  0  0  0  0  0  0
  -11.2751  -21.9756    5.0100 H   0  0  0  0  0  0  0  0  0  0  0  0
  -13.1364  -20.3165    5.3555 H   0  0  0  0  0  0  0  0  0  0  0  0
  1  2  1  0
  2  3  1  0
  2  4  1  0
  4  5  1  0
  5  6  1  0
  6  7  1  0
  7  8  1  0
  8  9  2  0
  8 10  1  0
 10 11  1  0
 11 12  1  0
 12 13  2  0
 12 14  1  0
 14 15  1  0
 15 16  1  0
 16 17  1  0
 17 18  2  0
 18 19  1  0
 19 20  2  0
 20 21  1  0
 21 22  2  0
 22 23  1  0
 23 24  2  0
 24 25  1  0
 10  4  1  0
 25 17  1  0
 24 19  1  0
  1 26  1  0
  1 27  1  0
  1 28  1  0
  2 29  1  0
  3 30  1  0
  3 31  1  0
  3 32  1  0
  5 33  1  0
  5 34  1  0
  6 35  1  0
  6 36  1  0
  7 37  1  0
 10 38  1  0
 11 39  1  0
 11 40  1  0
 14 41  1  0
 15 42  1  0
 15 43  1  0
 16 44  1  0
 16 45  1  0
 20 46  1  0
 21 47  1  0
 22 48  1  0
 23 49  1  0
M  END
>  <Energy>  (906) 
693.40789919306758

>  <compound_id>  (906) 
17616

>  <target_id>  (906) 
1

>  <reference_id>  (906) 
2

>  <inspiration_ids>  (906) 
[24, 2]

>  <energy_score>  (906) 
573.4797124960448

>  <distance_score>  (906) 
6.146972161094123

>  <path>  (906) 
/opt/xchem-fragalysis-2/maxwin/BulkDock/SCRATCH/511014/C17616-P2/C17616-P2.minimised.mol

>  <scratch_subdir>  (906) 
/opt/xchem-fragalysis-2/maxwin/BulkDock/SCRATCH/511014/C17616-P2

>  <fragmenstein_runtime>  (906) 
11.77391266822815

>  <fragmenstein_outcome>  (906) 
too moved

>  <fragmenstein_mode>  (906) 
expansion

>  <fragmenstein_error>  (906) 


$$$$
C17619-P24
     RDKit          3D

 39 42  0  0  0  0  0  0  0  0999 V2000
  -10.3810   -5.9274    1.5542 O   0  0  0  0  0  0  0  0  0  0  0  0
   -9.7123   -6.6270    0.7929 C   0  0  0  0  0  0  0  0  0  0  0  0
   -9.8025   -8.5441    0.7218 C   0  0  0  0  0  0  0  0  0  0  0  0
   -8.7178   -9.5304   -0.3314 N   0  0  0  0  0  0  0  0  0  0  0  0
   -8.9243  -10.8932   -0.1869 C   0  0  0  0  0  0  0  0  0  0  0  0
  -10.0033  -11.5064    0.2728 N   0  0  0  0  0  0  0  0  0  0  0  0
   -9.6147  -12.8208    0.4835 C   0  0  0  0  0  0  0  0  0  0  0  0
  -10.3081  -13.9497    0.9546 C   0  0  0  0  0  0  0  0  0  0  0  0
   -9.6108  -15.1593    1.1419 C   0  0  0  0  0  0  0  0  0  0  0  0
   -8.2474  -15.2484    0.8544 C   0  0  0  0  0  0  0  0  0  0  0  0
   -7.5527  -14.1450    0.3332 C   0  0  0  0  0  0  0  0  0  0  0  0
   -8.2824  -12.9633    0.1537 C   0  0  0  0  0  0  0  0  0  0  0  0
   -7.8585  -11.7504   -0.3580 O   0  0  0  0  0  0  0  0  0  0  0  0
   -7.7234   -8.7791   -1.6286 C   0  0  0  0  0  0  0  0  0  0  0  0
   -7.4805   -6.8616   -1.6707 C   0  0  0  0  0  0  0  0  0  0  0  0
   -8.6540   -5.8986   -0.4530 N   0  0  0  0  0  0  0  0  0  0  0  0
   -8.8849   -4.7139   -0.8693 C   0  0  0  0  0  0  0  0  0  0  0  0
   -9.8126   -5.8474   -1.6361 C   0  0  0  0  0  0  0  0  0  0  0  0
   -9.4400   -7.3882   -1.1741 C   0  0  0  0  0  0  0  0  0  0  0  0
   -8.0474   -7.5534    0.1058 N   0  0  0  0  0  0  0  0  0  0  0  0
   -7.1775   -6.2106    0.7921 C   0  0  0  0  0  0  0  0  0  0  0  0
   -6.1009   -6.1410    1.8804 C   0  0  0  0  0  0  0  0  0  0  0  0
   -4.9240   -5.6818    1.3696 F   0  0  0  0  0  0  0  0  0  0  0  0
   -6.4502   -5.2426    2.8559 F   0  0  0  0  0  0  0  0  0  0  0  0
   -5.8007   -7.2884    2.5252 F   0  0  0  0  0  0  0  0  0  0  0  0
   -7.6396   -4.7388    0.2235 C   0  0  0  0  0  0  0  0  0  0  0  0
   -9.6697   -8.9431    1.7197 H   0  0  0  0  0  0  0  0  0  0  0  0
  -10.8213   -8.7900    0.3873 H   0  0  0  0  0  0  0  0  0  0  0  0
  -11.3610  -13.8690    1.2034 H   0  0  0  0  0  0  0  0  0  0  0  0
  -10.1474  -16.0242    1.5254 H   0  0  0  0  0  0  0  0  0  0  0  0
   -7.7223  -16.1882    1.0062 H   0  0  0  0  0  0  0  0  0  0  0  0
   -6.5007  -14.1918    0.0781 H   0  0  0  0  0  0  0  0  0  0  0  0
   -6.7293   -9.2349   -1.6626 H   0  0  0  0  0  0  0  0  0  0  0  0
   -8.2310   -9.0518   -2.5661 H   0  0  0  0  0  0  0  0  0  0  0  0
   -7.6819   -6.5058   -2.6938 H   0  0  0  0  0  0  0  0  0  0  0  0
   -6.4364   -6.6327   -1.4097 H   0  0  0  0  0  0  0  0  0  0  0  0
  -10.5842   -5.5992   -2.3507 H   0  0  0  0  0  0  0  0  0  0  0  0
   -9.9752   -8.2549   -1.5666 H   0  0  0  0  0  0  0  0  0  0  0  0
   -7.1845   -3.8177    0.5704 H   0  0  0  0  0  0  0  0  0  0  0  0
  1  2  2  0
  2  3  1  0
  3  4  1  0
  4  5  1  0
  5  6  2  0
  6  7  1  0
  7  8  2  0
  8  9  1  0
  9 10  2  0
 10 11  1  0
 11 12  2  0
 12 13  1  0
  4 14  1  0
 14 15  1  0
 15 16  1  0
 16 17  1  0
 17 18  2  0
 18 19  1  0
 19 20  2  0
 20 21  1  0
 21 22  1  0
 22 23  1  0
 22 24  1  0
 22 25  1  0
 21 26  2  0
 16  2  1  0
 26 17  1  0
 13  5  1  0
 12  7  1  0
  3 27  1  0
  3 28  1  0
  8 29  1  0
  9 30  1  0
 10 31  1  0
 11 32  1  0
 14 33  1  0
 14 34  1  0
 15 35  1  0
 15 36  1  0
 18 37  1  0
 19 38  1  0
 26 39  1  0
M  END
>  <Energy>  (907) 
1139.0862423054118

>  <compound_id>  (907) 
17619

>  <target_id>  (907) 
1

>  <reference_id>  (907) 
24

>  <inspiration_ids>  (907) 
[24, 2]

>  <energy_score>  (907) 
967.9951357679529

>  <distance_score>  (907) 
10.937788401203331

>  <path>  (907) 
/opt/xchem-fragalysis-2/maxwin/BulkDock/SCRATCH/511014/C17619-P24/C17619-P24.minimised.mol

>  <scratch_subdir>  (907) 
/opt/xchem-fragalysis-2/maxwin/BulkDock/SCRATCH/511014/C17619-P24

>  <fragmenstein_runtime>  (907) 
15.509638547897339

>  <fragmenstein_outcome>  (907) 
too moved

>  <fragmenstein_mode>  (907) 
expansion

>  <fragmenstein_error>  (907) 


$$$$
C17619-P2
     RDKit          3D

 39 42  0  0  0  0  0  0  0  0999 V2000
   -5.5616  -15.9638    3.2027 O   0  0  0  0  0  0  0  0  0  0  0  0
   -6.6830  -15.7864    3.6819 C   0  0  0  0  0  0  0  0  0  0  0  0
   -8.1582  -17.0878    3.4581 C   0  0  0  0  0  0  0  0  0  0  0  0
   -9.3132  -17.3197    4.9618 N   0  0  0  0  0  0  0  0  0  0  0  0
   -9.9442  -18.5465    4.8139 C   0  0  0  0  0  0  0  0  0  0  0  0
  -11.1945  -18.9219    4.6626 N   0  0  0  0  0  0  0  0  0  0  0  0
  -11.1777  -20.2460    5.0473 C   0  0  0  0  0  0  0  0  0  0  0  0
  -12.2138  -21.1628    5.2664 C   0  0  0  0  0  0  0  0  0  0  0  0
  -11.8871  -22.4275    5.7866 C   0  0  0  0  0  0  0  0  0  0  0  0
  -10.5590  -22.7874    6.0463 C   0  0  0  0  0  0  0  0  0  0  0  0
   -9.5099  -21.9004    5.7908 C   0  0  0  0  0  0  0  0  0  0  0  0
   -9.8825  -20.6495    5.3104 C   0  0  0  0  0  0  0  0  0  0  0  0
   -9.0724  -19.5895    5.0588 O   0  0  0  0  0  0  0  0  0  0  0  0
  -10.2565  -15.4812    5.6057 C   0  0  0  0  0  0  0  0  0  0  0  0
   -8.6372  -13.8076    5.5453 C   0  0  0  0  0  0  0  0  0  0  0  0
   -7.1720  -14.1631    4.2208 N   0  0  0  0  0  0  0  0  0  0  0  0
   -7.5576  -13.6370    2.6204 C   0  0  0  0  0  0  0  0  0  0  0  0
   -7.7779  -14.4518    1.5119 C   0  0  0  0  0  0  0  0  0  0  0  0
   -8.4087  -13.9526    0.3549 C   0  0  0  0  0  0  0  0  0  0  0  0
   -8.8062  -12.6810    0.1575 N   0  0  0  0  0  0  0  0  0  0  0  0
   -8.4096  -11.8067    1.0882 C   0  0  0  0  0  0  0  0  0  0  0  0
   -8.6319  -10.2962    0.7669 C   0  0  0  0  0  0  0  0  0  0  0  0
   -9.7836   -9.7459    1.2571 F   0  0  0  0  0  0  0  0  0  0  0  0
   -8.6414  -10.0031   -0.5682 F   0  0  0  0  0  0  0  0  0  0  0  0
   -7.6813   -9.4385    1.2083 F   0  0  0  0  0  0  0  0  0  0  0  0
   -7.7195  -12.3335    2.2457 C   0  0  0  0  0  0  0  0  0  0  0  0
   -7.6987  -18.0764    3.3038 H   0  0  0  0  0  0  0  0  0  0  0  0
   -8.8077  -16.8537    2.6034 H   0  0  0  0  0  0  0  0  0  0  0  0
  -13.2429  -20.8742    5.0796 H   0  0  0  0  0  0  0  0  0  0  0  0
  -12.6851  -23.1414    5.9823 H   0  0  0  0  0  0  0  0  0  0  0  0
  -10.3384  -23.7765    6.4431 H   0  0  0  0  0  0  0  0  0  0  0  0
   -8.4769  -22.1535    5.9822 H   0  0  0  0  0  0  0  0  0  0  0  0
  -11.1440  -15.5031    4.8282 H   0  0  0  0  0  0  0  0  0  0  0  0
  -11.0279  -15.4275    6.4550 H   0  0  0  0  0  0  0  0  0  0  0  0
   -9.0203  -12.7676    5.1151 H   0  0  0  0  0  0  0  0  0  0  0  0
   -8.5905  -13.4933    6.6390 H   0  0  0  0  0  0  0  0  0  0  0  0
   -7.5334  -15.5027    1.4686 H   0  0  0  0  0  0  0  0  0  0  0  0
   -8.6296  -14.6273   -0.4709 H   0  0  0  0  0  0  0  0  0  0  0  0
   -6.9448  -11.7828    2.7505 H   0  0  0  0  0  0  0  0  0  0  0  0
  1  2  2  0
  2  3  1  0
  3  4  1  0
  4  5  1  0
  5  6  2  0
  6  7  1  0
  7  8  2  0
  8  9  1  0
  9 10  2  0
 10 11  1  0
 11 12  2  0
 12 13  1  0
  4 14  1  0
 14 15  1  0
 15 16  1  0
 16 17  1  0
 17 18  2  0
 18 19  1  0
 19 20  2  0
 20 21  1  0
 21 22  1  0
 22 23  1  0
 22 24  1  0
 22 25  1  0
 21 26  2  0
 16  2  1  0
 26 17  1  0
 13  5  1  0
 12  7  1  0
  3 27  1  0
  3 28  1  0
  8 29  1  0
  9 30  1  0
 10 31  1  0
 11 32  1  0
 14 33  1  0
 14 34  1  0
 15 35  1  0
 15 36  1  0
 18 37  1  0
 19 38  1  0
 26 39  1  0
M  END
>  <Energy>  (908) 
757.13561392457791

>  <compound_id>  (908) 
17619

>  <target_id>  (908) 
1

>  <reference_id>  (908) 
2

>  <inspiration_ids>  (908) 
[24, 2]

>  <energy_score>  (908) 
586.0445073871067

>  <distance_score>  (908) 
10.661235087004966

>  <path>  (908) 
/opt/xchem-fragalysis-2/maxwin/BulkDock/SCRATCH/511014/C17619-P2/C17619-P2.minimised.mol

>  <scratch_subdir>  (908) 
/opt/xchem-fragalysis-2/maxwin/BulkDock/SCRATCH/511014/C17619-P2

>  <fragmenstein_runtime>  (908) 
12.9398832321167

>  <fragmenstein_outcome>  (908) 
too moved

>  <fragmenstein_mode>  (908) 
expansion

>  <fragmenstein_error>  (908) 


$$$$
C8758-P124
     RDKit          3D

 38 40  0  0  0  0  0  0  0  0999 V2000
   18.2636   -3.9939   15.5574 C   0  0  0  0  0  0  0  0  0  0  0  0
   18.2094   -2.4845   15.3819 C   0  0  0  0  0  0  0  0  0  0  0  0
   18.0635   -1.7195   16.6999 C   0  0  0  0  0  0  0  0  0  0  0  0
   17.0777   -1.9740   14.0824 S   0  0  0  0  0  0  0  0  0  0  0  0
   17.3130   -0.5552   13.8613 O   0  0  0  0  0  0  0  0  0  0  0  0
   17.1604   -2.8977   12.9755 O   0  0  0  0  0  0  0  0  0  0  0  0
   15.5256   -2.0273   14.7662 C   0  0  0  0  0  0  0  0  0  0  0  0
   14.2628   -1.7432   13.9939 C   0  0  0  0  0  0  0  0  0  0  0  0
   13.2281   -1.8114   15.1345 C   0  0  0  0  0  0  0  0  0  0  0  0
   14.0061   -2.2030   16.3765 N   0  0  0  0  0  0  0  0  0  0  0  0
   14.5225   -1.2760   17.3610 C   0  0  0  0  0  0  0  0  0  0  0  0
   14.7854   -1.7606   18.5921 C   0  0  0  0  0  0  0  0  0  0  0  0
   15.2633   -0.8022   19.6001 C   0  0  0  0  0  0  0  0  0  0  0  0
   15.4969    0.4546   19.4187 N   0  0  0  0  0  0  0  0  0  0  0  0
   15.2846    0.9437   18.1704 C   0  0  0  0  0  0  0  0  0  0  0  0
   15.4358    2.1884   17.7691 N   0  0  0  0  0  0  0  0  0  0  0  0
   15.1081    2.2063   16.4522 C   0  0  0  0  0  0  0  0  0  0  0  0
   14.6980    0.9634   16.0446 C   0  0  0  0  0  0  0  0  0  0  0  0
   14.8144    0.1231   17.1360 N   0  0  0  0  0  0  0  0  0  0  0  0
   15.1155   -3.0012   15.8245 C   0  0  0  0  0  0  0  0  0  0  0  0
   18.9819   -4.2637   16.3391 H   0  0  0  0  0  0  0  0  0  0  0  0
   18.5990   -4.4744   14.6314 H   0  0  0  0  0  0  0  0  0  0  0  0
   17.3073   -4.4490   15.8136 H   0  0  0  0  0  0  0  0  0  0  0  0
   19.1851   -2.1878   14.9697 H   0  0  0  0  0  0  0  0  0  0  0  0
   17.3300   -2.1517   17.3759 H   0  0  0  0  0  0  0  0  0  0  0  0
   19.0166   -1.7493   17.2414 H   0  0  0  0  0  0  0  0  0  0  0  0
   17.8183   -0.6665   16.5356 H   0  0  0  0  0  0  0  0  0  0  0  0
   15.6964   -1.0975   15.3013 H   0  0  0  0  0  0  0  0  0  0  0  0
   14.0601   -2.4651   13.2016 H   0  0  0  0  0  0  0  0  0  0  0  0
   14.2761   -0.7648   13.5042 H   0  0  0  0  0  0  0  0  0  0  0  0
   12.4891   -2.5943   14.9289 H   0  0  0  0  0  0  0  0  0  0  0  0
   12.6902   -0.8729   15.2340 H   0  0  0  0  0  0  0  0  0  0  0  0
   14.6139   -2.7864   18.8888 H   0  0  0  0  0  0  0  0  0  0  0  0
   15.4236   -1.2263   20.6060 H   0  0  0  0  0  0  0  0  0  0  0  0
   15.1536    3.1163   15.8676 H   0  0  0  0  0  0  0  0  0  0  0  0
   14.3185    0.6605   15.0883 H   0  0  0  0  0  0  0  0  0  0  0  0
   15.8512   -3.2223   16.5912 H   0  0  0  0  0  0  0  0  0  0  0  0
   14.7663   -3.9708   15.4926 H   0  0  0  0  0  0  0  0  0  0  0  0
  1  2  1  0
  2  3  1  0
  2  4  1  0
  4  5  2  0
  4  6  2  0
  4  7  1  0
  7  8  1  0
  8  9  1  0
  9 10  1  0
 10 11  1  0
 11 12  2  0
 12 13  1  0
 13 14  2  0
 14 15  1  0
 15 16  2  0
 16 17  1  0
 17 18  2  0
 18 19  1  0
 10 20  1  0
 20  7  1  0
 19 11  1  0
 19 15  1  0
  1 21  1  0
  1 22  1  0
  1 23  1  0
  2 24  1  0
  3 25  1  0
  3 26  1  0
  3 27  1  0
  7 28  1  0
  8 29  1  0
  8 30  1  0
  9 31  1  0
  9 32  1  0
 12 33  1  0
 13 34  1  0
 17 35  1  0
 18 36  1  0
 20 37  1  0
 20 38  1  0
M  END
>  <Energy>  (909) 
90.697528120941513

>  <compound_id>  (909) 
8758

>  <target_id>  (909) 
1

>  <reference_id>  (909) 
124

>  <inspiration_ids>  (909) 
[124, 106]

>  <energy_score>  (909) 
1.2342074649246229

>  <distance_score>  (909) 
2.104698424201212

>  <path>  (909) 
/opt/xchem-fragalysis-2/maxwin/BulkDock/SCRATCH/511014/C8758-P124/C8758-P124.minimised.mol

>  <scratch_subdir>  (909) 
/opt/xchem-fragalysis-2/maxwin/BulkDock/SCRATCH/511014/C8758-P124

>  <fragmenstein_runtime>  (909) 
13.647471904754639

>  <fragmenstein_outcome>  (909) 
too moved

>  <fragmenstein_mode>  (909) 
expansion

>  <fragmenstein_error>  (909) 


$$$$
C8758-P106
     RDKit          3D

 38 40  0  0  0  0  0  0  0  0999 V2000
   16.8565   -4.1097   15.8212 C   0  0  0  0  0  0  0  0  0  0  0  0
   17.0994   -2.6191   15.6978 C   0  0  0  0  0  0  0  0  0  0  0  0
   17.0714   -1.8954   17.0416 C   0  0  0  0  0  0  0  0  0  0  0  0
   16.1202   -1.8324   14.4113 S   0  0  0  0  0  0  0  0  0  0  0  0
   16.6312   -0.4734   14.3206 O   0  0  0  0  0  0  0  0  0  0  0  0
   16.1226   -2.6639   13.2299 O   0  0  0  0  0  0  0  0  0  0  0  0
   14.4910   -1.6459   14.9321 C   0  0  0  0  0  0  0  0  0  0  0  0
   13.3504   -1.4724   13.9295 C   0  0  0  0  0  0  0  0  0  0  0  0
   12.0926   -1.6527   14.8203 C   0  0  0  0  0  0  0  0  0  0  0  0
   12.6354   -1.6812   16.2220 N   0  0  0  0  0  0  0  0  0  0  0  0
   13.0012   -0.4713   16.9487 C   0  0  0  0  0  0  0  0  0  0  0  0
   13.8286   -0.5900   18.0175 C   0  0  0  0  0  0  0  0  0  0  0  0
   14.4711    0.6138   18.5568 C   0  0  0  0  0  0  0  0  0  0  0  0
   14.3504    1.8047   18.0852 N   0  0  0  0  0  0  0  0  0  0  0  0
   13.4971    1.9512   17.0359 C   0  0  0  0  0  0  0  0  0  0  0  0
   13.2307    3.0641   16.3883 N   0  0  0  0  0  0  0  0  0  0  0  0
   12.2544    2.7553   15.4942 C   0  0  0  0  0  0  0  0  0  0  0  0
   11.9296    1.4237   15.5664 C   0  0  0  0  0  0  0  0  0  0  0  0
   12.7786    0.8669   16.4953 N   0  0  0  0  0  0  0  0  0  0  0  0
   13.8545   -2.5315   15.9745 C   0  0  0  0  0  0  0  0  0  0  0  0
   17.5328   -4.5508   16.5615 H   0  0  0  0  0  0  0  0  0  0  0  0
   17.0414   -4.6174   14.8700 H   0  0  0  0  0  0  0  0  0  0  0  0
   15.8355   -4.3469   16.1253 H   0  0  0  0  0  0  0  0  0  0  0  0
   18.1233   -2.5041   15.3126 H   0  0  0  0  0  0  0  0  0  0  0  0
   17.0489   -0.8083   16.9228 H   0  0  0  0  0  0  0  0  0  0  0  0
   16.2289   -2.1934   17.6632 H   0  0  0  0  0  0  0  0  0  0  0  0
   17.9727   -2.1459   17.6131 H   0  0  0  0  0  0  0  0  0  0  0  0
   14.6243   -0.6473   15.3651 H   0  0  0  0  0  0  0  0  0  0  0  0
   13.3686   -2.2162   13.1276 H   0  0  0  0  0  0  0  0  0  0  0  0
   13.3753   -0.4800   13.4673 H   0  0  0  0  0  0  0  0  0  0  0  0
   11.6456   -2.6352   14.6133 H   0  0  0  0  0  0  0  0  0  0  0  0
   11.2943   -0.9423   14.6403 H   0  0  0  0  0  0  0  0  0  0  0  0
   14.1093   -1.5227   18.4861 H   0  0  0  0  0  0  0  0  0  0  0  0
   15.1317    0.4480   19.4242 H   0  0  0  0  0  0  0  0  0  0  0  0
   11.8140    3.5145   14.8610 H   0  0  0  0  0  0  0  0  0  0  0  0
   11.1535    0.8857   15.0569 H   0  0  0  0  0  0  0  0  0  0  0  0
   14.4384   -2.7206   16.8682 H   0  0  0  0  0  0  0  0  0  0  0  0
   13.5480   -3.5158   15.6162 H   0  0  0  0  0  0  0  0  0  0  0  0
  1  2  1  0
  2  3  1  0
  2  4  1  0
  4  5  2  0
  4  6  2  0
  4  7  1  0
  7  8  1  0
  8  9  1  0
  9 10  1  0
 10 11  1  0
 11 12  2  0
 12 13  1  0
 13 14  2  0
 14 15  1  0
 15 16  2  0
 16 17  1  0
 17 18  2  0
 18 19  1  0
 10 20  1  0
 20  7  1  0
 19 11  1  0
 19 15  1  0
  1 21  1  0
  1 22  1  0
  1 23  1  0
  2 24  1  0
  3 25  1  0
  3 26  1  0
  3 27  1  0
  7 28  1  0
  8 29  1  0
  8 30  1  0
  9 31  1  0
  9 32  1  0
 12 33  1  0
 13 34  1  0
 17 35  1  0
 18 36  1  0
 20 37  1  0
 20 38  1  0
M  END
>  <Energy>  (910) 
91.597584871122137

>  <compound_id>  (910) 
8758

>  <target_id>  (910) 
1

>  <reference_id>  (910) 
106

>  <inspiration_ids>  (910) 
[124, 106]

>  <energy_score>  (910) 
2.134264215105077

>  <distance_score>  (910) 
1.5668964333184834

>  <path>  (910) 
/opt/xchem-fragalysis-2/maxwin/BulkDock/SCRATCH/511014/C8758-P106/C8758-P106.minimised.mol

>  <scratch_subdir>  (910) 
/opt/xchem-fragalysis-2/maxwin/BulkDock/SCRATCH/511014/C8758-P106

>  <fragmenstein_runtime>  (910) 
13.494996309280396

>  <fragmenstein_outcome>  (910) 
too moved

>  <fragmenstein_mode>  (910) 
expansion

>  <fragmenstein_error>  (910) 


$$$$
C8763-P124
     RDKit          3D

 40 43  0  0  0  0  0  0  0  0999 V2000
   11.6674   -1.5530   14.5052 C   0  0  0  0  0  0  0  0  0  0  0  0
   12.9020   -0.9243   14.4563 C   0  0  0  0  0  0  0  0  0  0  0  0
   13.9626   -1.4833   15.1436 C   0  0  0  0  0  0  0  0  0  0  0  0
   13.7929   -2.6551   15.8838 C   0  0  0  0  0  0  0  0  0  0  0  0
   14.8157   -3.2897   16.5318 O   0  0  0  0  0  0  0  0  0  0  0  0
   15.9884   -3.4689   15.7237 C   0  0  0  0  0  0  0  0  0  0  0  0
   17.2073   -2.7694   16.3469 C   0  0  0  0  0  0  0  0  0  0  0  0
   18.4575   -3.1524   15.5489 C   0  0  0  0  0  0  0  0  0  0  0  0
   18.3534   -2.2479   14.3368 C   0  0  0  0  0  0  0  0  0  0  0  0
   17.8203   -0.9530   14.9094 C   0  0  0  0  0  0  0  0  0  0  0  0
   17.1419   -1.3035   16.1735 N   0  0  0  0  0  0  0  0  0  0  0  0
   16.6099   -0.3020   17.0259 C   0  0  0  0  0  0  0  0  0  0  0  0
   16.6837    0.9976   16.6496 C   0  0  0  0  0  0  0  0  0  0  0  0
   16.1029    2.0304   17.5283 C   0  0  0  0  0  0  0  0  0  0  0  0
   15.5272    1.8256   18.6620 N   0  0  0  0  0  0  0  0  0  0  0  0
   15.4695    0.5257   19.0620 C   0  0  0  0  0  0  0  0  0  0  0  0
   14.9606    0.0856   20.1920 N   0  0  0  0  0  0  0  0  0  0  0  0
   15.0797   -1.2675   20.1596 C   0  0  0  0  0  0  0  0  0  0  0  0
   15.6750   -1.6725   18.9926 C   0  0  0  0  0  0  0  0  0  0  0  0
   15.9655   -0.5347   18.2744 N   0  0  0  0  0  0  0  0  0  0  0  0
   12.5393   -3.2499   15.9727 C   0  0  0  0  0  0  0  0  0  0  0  0
   11.4809   -2.7160   15.2472 C   0  0  0  0  0  0  0  0  0  0  0  0
   10.8401   -1.0898   13.9847 H   0  0  0  0  0  0  0  0  0  0  0  0
   13.0254   -0.0071   13.8882 H   0  0  0  0  0  0  0  0  0  0  0  0
   14.9207   -0.9937   15.0726 H   0  0  0  0  0  0  0  0  0  0  0  0
   16.1753   -4.5493   15.7108 H   0  0  0  0  0  0  0  0  0  0  0  0
   15.8285   -3.1781   14.6798 H   0  0  0  0  0  0  0  0  0  0  0  0
   17.3664   -3.0611   17.3854 H   0  0  0  0  0  0  0  0  0  0  0  0
   18.5043   -4.2125   15.2830 H   0  0  0  0  0  0  0  0  0  0  0  0
   19.3603   -2.9037   16.1210 H   0  0  0  0  0  0  0  0  0  0  0  0
   17.6635   -2.6598   13.5920 H   0  0  0  0  0  0  0  0  0  0  0  0
   19.3182   -2.1118   13.8384 H   0  0  0  0  0  0  0  0  0  0  0  0
   18.6618   -0.2795   15.1126 H   0  0  0  0  0  0  0  0  0  0  0  0
   17.1409   -0.4693   14.1993 H   0  0  0  0  0  0  0  0  0  0  0  0
   17.1270    1.3586   15.7343 H   0  0  0  0  0  0  0  0  0  0  0  0
   16.1822    3.0636   17.1513 H   0  0  0  0  0  0  0  0  0  0  0  0
   14.7145   -1.8849   20.9716 H   0  0  0  0  0  0  0  0  0  0  0  0
   15.8928   -2.6664   18.6549 H   0  0  0  0  0  0  0  0  0  0  0  0
   12.4022   -4.1585   16.5529 H   0  0  0  0  0  0  0  0  0  0  0  0
   10.5151   -3.2074   15.2420 H   0  0  0  0  0  0  0  0  0  0  0  0
  1  2  2  0
  2  3  1  0
  3  4  2  0
  4  5  1  0
  5  6  1  0
  6  7  1  0
  7  8  1  0
  8  9  1  0
  9 10  1  0
 10 11  1  0
 11 12  1  0
 12 13  2  0
 13 14  1  0
 14 15  2  0
 15 16  1  0
 16 17  2  0
 17 18  1  0
 18 19  2  0
 19 20  1  0
  4 21  1  0
 21 22  2  0
 22  1  1  0
 11  7  1  0
 20 12  1  0
 20 16  1  0
  1 23  1  0
  2 24  1  0
  3 25  1  0
  6 26  1  0
  6 27  1  0
  7 28  1  0
  8 29  1  0
  8 30  1  0
  9 31  1  0
  9 32  1  0
 10 33  1  0
 10 34  1  0
 13 35  1  0
 14 36  1  0
 18 37  1  0
 19 38  1  0
 21 39  1  0
 22 40  1  0
M  END
>  <Energy>  (911) 
104.98369237498689

>  <compound_id>  (911) 
8763

>  <target_id>  (911) 
1

>  <reference_id>  (911) 
124

>  <inspiration_ids>  (911) 
[124, 106]

>  <energy_score>  (911) 
-31.889739629999497

>  <distance_score>  (911) 
1.8810986165871184

>  <path>  (911) 
/opt/xchem-fragalysis-2/maxwin/BulkDock/SCRATCH/511014/C8763-P124/C8763-P124.minimised.mol

>  <scratch_subdir>  (911) 
/opt/xchem-fragalysis-2/maxwin/BulkDock/SCRATCH/511014/C8763-P124

>  <fragmenstein_runtime>  (911) 
134.84720039367676

>  <fragmenstein_outcome>  (911) 
too moved

>  <fragmenstein_mode>  (911) 
expansion

>  <fragmenstein_error>  (911) 


$$$$
C8763-P106
     RDKit          3D

 40 43  0  0  0  0  0  0  0  0999 V2000
   10.9318   -0.4656   15.4523 C   0  0  0  0  0  0  0  0  0  0  0  0
   12.0806    0.3110   15.5821 C   0  0  0  0  0  0  0  0  0  0  0  0
   13.3282   -0.3012   15.5134 C   0  0  0  0  0  0  0  0  0  0  0  0
   13.4240   -1.6841   15.3725 C   0  0  0  0  0  0  0  0  0  0  0  0
   14.6523   -2.2214   15.1078 O   0  0  0  0  0  0  0  0  0  0  0  0
   15.1379   -3.0540   16.1651 C   0  0  0  0  0  0  0  0  0  0  0  0
   16.6409   -2.8382   16.4171 C   0  0  0  0  0  0  0  0  0  0  0  0
   17.4957   -3.4971   15.3307 C   0  0  0  0  0  0  0  0  0  0  0  0
   17.4722   -2.4762   14.2176 C   0  0  0  0  0  0  0  0  0  0  0  0
   17.4895   -1.1517   14.9511 C   0  0  0  0  0  0  0  0  0  0  0  0
   17.0167   -1.4114   16.3334 N   0  0  0  0  0  0  0  0  0  0  0  0
   16.6189   -0.3382   17.1684 C   0  0  0  0  0  0  0  0  0  0  0  0
   16.8937    0.9373   16.8066 C   0  0  0  0  0  0  0  0  0  0  0  0
   16.3502    2.0373   17.6280 C   0  0  0  0  0  0  0  0  0  0  0  0
   15.6216    1.9103   18.6834 N   0  0  0  0  0  0  0  0  0  0  0  0
   15.3897    0.6303   19.0852 C   0  0  0  0  0  0  0  0  0  0  0  0
   14.7040    0.2528   20.1429 N   0  0  0  0  0  0  0  0  0  0  0  0
   14.8186   -1.1005   20.2066 C   0  0  0  0  0  0  0  0  0  0  0  0
   15.5638   -1.5727   19.1563 C   0  0  0  0  0  0  0  0  0  0  0  0
   15.8959   -0.4813   18.3843 N   0  0  0  0  0  0  0  0  0  0  0  0
   12.2796   -2.4671   15.3079 C   0  0  0  0  0  0  0  0  0  0  0  0
   11.0345   -1.8496   15.3123 C   0  0  0  0  0  0  0  0  0  0  0  0
    9.9549    0.0083   15.4143 H   0  0  0  0  0  0  0  0  0  0  0  0
   12.0079    1.3902   15.6820 H   0  0  0  0  0  0  0  0  0  0  0  0
   14.2266    0.3054   15.5288 H   0  0  0  0  0  0  0  0  0  0  0  0
   14.9495   -4.1032   15.9158 H   0  0  0  0  0  0  0  0  0  0  0  0
   14.5804   -2.8602   17.0874 H   0  0  0  0  0  0  0  0  0  0  0  0
   16.9425   -3.2866   17.3672 H   0  0  0  0  0  0  0  0  0  0  0  0
   17.1259   -4.4775   15.0173 H   0  0  0  0  0  0  0  0  0  0  0  0
   18.5244   -3.6241   15.6912 H   0  0  0  0  0  0  0  0  0  0  0  0
   16.5700   -2.5777   13.6057 H   0  0  0  0  0  0  0  0  0  0  0  0
   18.3265   -2.5818   13.5415 H   0  0  0  0  0  0  0  0  0  0  0  0
   16.8520   -0.4333   14.4227 H   0  0  0  0  0  0  0  0  0  0  0  0
   18.5116   -0.7569   14.9892 H   0  0  0  0  0  0  0  0  0  0  0  0
   17.4447    1.2284   15.9254 H   0  0  0  0  0  0  0  0  0  0  0  0
   16.5880    3.0515   17.2661 H   0  0  0  0  0  0  0  0  0  0  0  0
   14.3688   -1.6656   21.0146 H   0  0  0  0  0  0  0  0  0  0  0  0
   15.8871   -2.5733   18.9436 H   0  0  0  0  0  0  0  0  0  0  0  0
   12.3403   -3.5367   15.1628 H   0  0  0  0  0  0  0  0  0  0  0  0
   10.1431   -2.4409   15.1280 H   0  0  0  0  0  0  0  0  0  0  0  0
  1  2  2  0
  2  3  1  0
  3  4  2  0
  4  5  1  0
  5  6  1  0
  6  7  1  0
  7  8  1  0
  8  9  1  0
  9 10  1  0
 10 11  1  0
 11 12  1  0
 12 13  2  0
 13 14  1  0
 14 15  2  0
 15 16  1  0
 16 17  2  0
 17 18  1  0
 18 19  2  0
 19 20  1  0
  4 21  1  0
 21 22  2  0
 22  1  1  0
 11  7  1  0
 20 12  1  0
 20 16  1  0
  1 23  1  0
  2 24  1  0
  3 25  1  0
  6 26  1  0
  6 27  1  0
  7 28  1  0
  8 29  1  0
  8 30  1  0
  9 31  1  0
  9 32  1  0
 10 33  1  0
 10 34  1  0
 13 35  1  0
 14 36  1  0
 18 37  1  0
 19 38  1  0
 21 39  1  0
 22 40  1  0
M  END
>  <Energy>  (912) 
104.85484962337829

>  <compound_id>  (912) 
8763

>  <target_id>  (912) 
1

>  <reference_id>  (912) 
106

>  <inspiration_ids>  (912) 
[124, 106]

>  <energy_score>  (912) 
-32.018582381608155

>  <distance_score>  (912) 
1.9428413942626703

>  <path>  (912) 
/opt/xchem-fragalysis-2/maxwin/BulkDock/SCRATCH/511014/C8763-P106/C8763-P106.minimised.mol

>  <scratch_subdir>  (912) 
/opt/xchem-fragalysis-2/maxwin/BulkDock/SCRATCH/511014/C8763-P106

>  <fragmenstein_runtime>  (912) 
103.57042360305786

>  <fragmenstein_outcome>  (912) 
too moved

>  <fragmenstein_mode>  (912) 
expansion

>  <fragmenstein_error>  (912) 


$$$$
C8765-P124
     RDKit          3D

 48 51  0  0  0  0  0  0  0  0999 V2000
   11.7893   -1.2691   14.0177 C   0  0  0  0  0  0  0  0  0  0  0  0
   13.2469   -1.2975   13.7635 C   0  0  0  0  0  0  0  0  0  0  0  0
   13.9950   -2.1076   14.5382 C   0  0  0  0  0  0  0  0  0  0  0  0
   15.3932   -2.1906   14.4162 N   0  0  0  0  0  0  0  0  0  0  0  0
   16.1824   -1.5257   13.3702 C   0  0  0  0  0  0  0  0  0  0  0  0
   17.6471   -1.7533   13.7469 C   0  0  0  0  0  0  0  0  0  0  0  0
   17.6131   -2.1396   15.2138 C   0  0  0  0  0  0  0  0  0  0  0  0
   17.6868   -1.1185   16.2056 O   0  0  0  0  0  0  0  0  0  0  0  0
   17.0678    0.1563   16.0074 C   0  0  0  0  0  0  0  0  0  0  0  0
   15.5677    0.4180   16.3366 C   0  0  0  0  0  0  0  0  0  0  0  0
   15.0945    0.4073   17.7136 N   0  0  0  0  0  0  0  0  0  0  0  0
   15.6405    1.4189   18.6007 C   0  0  0  0  0  0  0  0  0  0  0  0
   16.8467    0.9390   19.4076 C   0  0  0  0  0  0  0  0  0  0  0  0
   16.6142   -0.4169   20.0714 C   0  0  0  0  0  0  0  0  0  0  0  0
   16.1558   -1.4418   19.0564 C   0  0  0  0  0  0  0  0  0  0  0  0
   14.9517   -0.9042   18.3220 C   0  0  0  0  0  0  0  0  0  0  0  0
   16.3030   -2.8724   15.3400 C   0  0  0  0  0  0  0  0  0  0  0  0
   13.2884   -2.8820   15.4895 N   0  0  0  0  0  0  0  0  0  0  0  0
   13.7008   -3.8055   16.4162 C   0  0  0  0  0  0  0  0  0  0  0  0
   12.5937   -4.1407   17.1235 C   0  0  0  0  0  0  0  0  0  0  0  0
   11.4868   -3.6369   16.5414 N   0  0  0  0  0  0  0  0  0  0  0  0
   11.9019   -2.8363   15.6000 C   0  0  0  0  0  0  0  0  0  0  0  0
   11.1435   -1.9951   14.8678 N   0  0  0  0  0  0  0  0  0  0  0  0
   11.2349   -0.5222   13.4278 H   0  0  0  0  0  0  0  0  0  0  0  0
   13.6299   -0.6461   12.9941 H   0  0  0  0  0  0  0  0  0  0  0  0
   15.9627   -0.4534   13.3394 H   0  0  0  0  0  0  0  0  0  0  0  0
   15.9638   -1.9498   12.3839 H   0  0  0  0  0  0  0  0  0  0  0  0
   18.0317   -2.5939   13.1555 H   0  0  0  0  0  0  0  0  0  0  0  0
   18.2707   -0.8815   13.5308 H   0  0  0  0  0  0  0  0  0  0  0  0
   18.4412   -2.8191   15.4424 H   0  0  0  0  0  0  0  0  0  0  0  0
   17.2564    0.4934   14.9833 H   0  0  0  0  0  0  0  0  0  0  0  0
   17.6577    0.8564   16.6076 H   0  0  0  0  0  0  0  0  0  0  0  0
   14.9313   -0.2383   15.7666 H   0  0  0  0  0  0  0  0  0  0  0  0
   15.3390    1.4148   15.9344 H   0  0  0  0  0  0  0  0  0  0  0  0
   14.8511    1.7052   19.3079 H   0  0  0  0  0  0  0  0  0  0  0  0
   15.8918    2.3384   18.0585 H   0  0  0  0  0  0  0  0  0  0  0  0
   17.0824    1.6815   20.1793 H   0  0  0  0  0  0  0  0  0  0  0  0
   17.7323    0.8728   18.7676 H   0  0  0  0  0  0  0  0  0  0  0  0
   17.5358   -0.7555   20.5578 H   0  0  0  0  0  0  0  0  0  0  0  0
   15.8595   -0.3106   20.8608 H   0  0  0  0  0  0  0  0  0  0  0  0
   16.9747   -1.6850   18.3793 H   0  0  0  0  0  0  0  0  0  0  0  0
   15.8916   -2.3736   19.5701 H   0  0  0  0  0  0  0  0  0  0  0  0
   14.1631   -0.8315   19.0724 H   0  0  0  0  0  0  0  0  0  0  0  0
   14.5940   -1.6333   17.6013 H   0  0  0  0  0  0  0  0  0  0  0  0
   16.0026   -2.7855   16.3806 H   0  0  0  0  0  0  0  0  0  0  0  0
   16.4107   -3.9215   15.0452 H   0  0  0  0  0  0  0  0  0  0  0  0
   14.7024   -4.1534   16.5487 H   0  0  0  0  0  0  0  0  0  0  0  0
   12.5534   -4.7291   18.0208 H   0  0  0  0  0  0  0  0  0  0  0  0
  1  2  1  0
  2  3  2  0
  3  4  1  0
  4  5  1  0
  5  6  1  0
  6  7  1  0
  7  8  1  0
  8  9  1  0
  9 10  1  0
 10 11  1  0
 11 12  1  0
 12 13  1  0
 13 14  1  0
 14 15  1  0
 15 16  1  0
  7 17  1  0
  3 18  1  0
 18 19  1  0
 19 20  2  0
 20 21  1  0
 21 22  2  0
 22 23  1  0
 23  1  2  0
 17  4  1  0
 22 18  1  0
 16 11  1  0
  1 24  1  0
  2 25  1  0
  5 26  1  0
  5 27  1  0
  6 28  1  0
  6 29  1  0
  7 30  1  0
  9 31  1  0
  9 32  1  0
 10 33  1  0
 10 34  1  0
 12 35  1  0
 12 36  1  0
 13 37  1  0
 13 38  1  0
 14 39  1  0
 14 40  1  0
 15 41  1  0
 15 42  1  0
 16 43  1  0
 16 44  1  0
 17 45  1  0
 17 46  1  0
 19 47  1  0
 20 48  1  0
M  END
>  <Energy>  (913) 
128.34728694687982

>  <compound_id>  (913) 
8765

>  <target_id>  (913) 
1

>  <reference_id>  (913) 
124

>  <inspiration_ids>  (913) 
[124, 106]

>  <energy_score>  (913) 
-21.615418447585483

>  <distance_score>  (913) 
2.0607997075420097

>  <path>  (913) 
/opt/xchem-fragalysis-2/maxwin/BulkDock/SCRATCH/511014/C8765-P124/C8765-P124.minimised.mol

>  <scratch_subdir>  (913) 
/opt/xchem-fragalysis-2/maxwin/BulkDock/SCRATCH/511014/C8765-P124

>  <fragmenstein_runtime>  (913) 
3.717813730239868

>  <fragmenstein_outcome>  (913) 
too moved

>  <fragmenstein_mode>  (913) 
expansion

>  <fragmenstein_error>  (913) 


$$$$
C8765-P106
     RDKit          3D

 48 51  0  0  0  0  0  0  0  0999 V2000
   11.7281   -1.1606   14.2802 C   0  0  0  0  0  0  0  0  0  0  0  0
   13.1228   -1.2967   13.7816 C   0  0  0  0  0  0  0  0  0  0  0  0
   13.9359   -2.1117   14.4749 C   0  0  0  0  0  0  0  0  0  0  0  0
   15.2738   -2.3635   14.1601 N   0  0  0  0  0  0  0  0  0  0  0  0
   15.9940   -2.0899   12.8919 C   0  0  0  0  0  0  0  0  0  0  0  0
   17.5013   -2.1218   13.2965 C   0  0  0  0  0  0  0  0  0  0  0  0
   17.3506   -1.5719   14.6988 C   0  0  0  0  0  0  0  0  0  0  0  0
   18.3858   -1.4603   15.6404 O   0  0  0  0  0  0  0  0  0  0  0  0
   17.9058   -0.7428   16.8344 C   0  0  0  0  0  0  0  0  0  0  0  0
   16.8388    0.3965   16.5967 C   0  0  0  0  0  0  0  0  0  0  0  0
   16.3861    1.1555   17.7679 N   0  0  0  0  0  0  0  0  0  0  0  0
   15.3358    2.1107   17.3663 C   0  0  0  0  0  0  0  0  0  0  0  0
   14.0825    1.4062   16.8598 C   0  0  0  0  0  0  0  0  0  0  0  0
   13.6283    0.3357   17.8345 C   0  0  0  0  0  0  0  0  0  0  0  0
   14.7019   -0.5515   18.4237 C   0  0  0  0  0  0  0  0  0  0  0  0
   15.8923    0.2922   18.8466 C   0  0  0  0  0  0  0  0  0  0  0  0
   16.2758   -2.5033   15.1976 C   0  0  0  0  0  0  0  0  0  0  0  0
   13.3556   -2.8115   15.5635 N   0  0  0  0  0  0  0  0  0  0  0  0
   13.8774   -3.7545   16.4280 C   0  0  0  0  0  0  0  0  0  0  0  0
   12.8628   -4.0972   17.2653 C   0  0  0  0  0  0  0  0  0  0  0  0
   11.7133   -3.5088   16.8592 N   0  0  0  0  0  0  0  0  0  0  0  0
   12.0148   -2.6880   15.8897 C   0  0  0  0  0  0  0  0  0  0  0  0
   11.1986   -1.7984   15.2743 N   0  0  0  0  0  0  0  0  0  0  0  0
   11.1199   -0.4112   13.7468 H   0  0  0  0  0  0  0  0  0  0  0  0
   13.4171   -0.7224   12.9179 H   0  0  0  0  0  0  0  0  0  0  0  0
   15.7384   -1.0915   12.5175 H   0  0  0  0  0  0  0  0  0  0  0  0
   15.7590   -2.8204   12.1159 H   0  0  0  0  0  0  0  0  0  0  0  0
   17.9140   -3.1369   13.2921 H   0  0  0  0  0  0  0  0  0  0  0  0
   18.1221   -1.4967   12.6488 H   0  0  0  0  0  0  0  0  0  0  0  0
   16.9919   -0.5578   14.4904 H   0  0  0  0  0  0  0  0  0  0  0  0
   18.7970   -0.3079   17.3002 H   0  0  0  0  0  0  0  0  0  0  0  0
   17.5290   -1.5049   17.5237 H   0  0  0  0  0  0  0  0  0  0  0  0
   15.9793   -0.0362   16.0911 H   0  0  0  0  0  0  0  0  0  0  0  0
   17.2897    1.1043   15.8881 H   0  0  0  0  0  0  0  0  0  0  0  0
   15.7185    2.7921   16.5966 H   0  0  0  0  0  0  0  0  0  0  0  0
   15.0833    2.7465   18.2247 H   0  0  0  0  0  0  0  0  0  0  0  0
   14.2360    0.9748   15.8654 H   0  0  0  0  0  0  0  0  0  0  0  0
   13.2810    2.1448   16.7339 H   0  0  0  0  0  0  0  0  0  0  0  0
   13.2309    0.9006   18.6729 H   0  0  0  0  0  0  0  0  0  0  0  0
   12.8341   -0.2620   17.3845 H   0  0  0  0  0  0  0  0  0  0  0  0
   14.3138   -1.0864   19.2974 H   0  0  0  0  0  0  0  0  0  0  0  0
   14.9923   -1.3170   17.7103 H   0  0  0  0  0  0  0  0  0  0  0  0
   16.6941   -0.3494   19.2281 H   0  0  0  0  0  0  0  0  0  0  0  0
   15.6106    0.9202   19.7028 H   0  0  0  0  0  0  0  0  0  0  0  0
   15.9283   -2.2214   16.1845 H   0  0  0  0  0  0  0  0  0  0  0  0
   16.6483   -3.5343   15.2613 H   0  0  0  0  0  0  0  0  0  0  0  0
   14.8847   -4.1242   16.3820 H   0  0  0  0  0  0  0  0  0  0  0  0
   12.8936   -4.7585   18.1175 H   0  0  0  0  0  0  0  0  0  0  0  0
  1  2  1  0
  2  3  2  0
  3  4  1  0
  4  5  1  0
  5  6  1  0
  6  7  1  0
  7  8  1  0
  8  9  1  0
  9 10  1  0
 10 11  1  0
 11 12  1  0
 12 13  1  0
 13 14  1  0
 14 15  1  0
 15 16  1  0
  7 17  1  0
  3 18  1  0
 18 19  1  0
 19 20  2  0
 20 21  1  0
 21 22  2  0
 22 23  1  0
 23  1  2  0
 17  4  1  0
 22 18  1  0
 16 11  1  0
  1 24  1  0
  2 25  1  0
  5 26  1  0
  5 27  1  0
  6 28  1  0
  6 29  1  0
  7 30  1  0
  9 31  1  0
  9 32  1  0
 10 33  1  0
 10 34  1  0
 12 35  1  0
 12 36  1  0
 13 37  1  0
 13 38  1  0
 14 39  1  0
 14 40  1  0
 15 41  1  0
 15 42  1  0
 16 43  1  0
 16 44  1  0
 17 45  1  0
 17 46  1  0
 19 47  1  0
 20 48  1  0
M  END
>  <Energy>  (914) 
132.15891802583502

>  <compound_id>  (914) 
8765

>  <target_id>  (914) 
1

>  <reference_id>  (914) 
106

>  <inspiration_ids>  (914) 
[124, 106]

>  <energy_score>  (914) 
-17.803787368630253

>  <distance_score>  (914) 
2.3122122053562695

>  <path>  (914) 
/opt/xchem-fragalysis-2/maxwin/BulkDock/SCRATCH/511014/C8765-P106/C8765-P106.minimised.mol

>  <scratch_subdir>  (914) 
/opt/xchem-fragalysis-2/maxwin/BulkDock/SCRATCH/511014/C8765-P106

>  <fragmenstein_runtime>  (914) 
3.3895039558410645

>  <fragmenstein_outcome>  (914) 
too moved

>  <fragmenstein_mode>  (914) 
expansion

>  <fragmenstein_error>  (914) 


$$$$
C8771-P124
     RDKit          3D

 44 46  0  0  0  0  0  0  0  0999 V2000
   19.4301   -2.7514   14.4622 C   0  0  0  0  0  0  0  0  0  0  0  0
   19.4810   -3.0359   15.9787 C   0  0  0  0  0  0  0  0  0  0  0  0
   19.9949   -4.4578   16.1937 C   0  0  0  0  0  0  0  0  0  0  0  0
   20.3743   -2.0294   16.7032 C   0  0  0  0  0  0  0  0  0  0  0  0
   18.1846   -3.0574   16.6072 O   0  0  0  0  0  0  0  0  0  0  0  0
   17.2495   -2.2611   16.0450 C   0  0  0  0  0  0  0  0  0  0  0  0
   17.4058   -1.0531   15.9380 O   0  0  0  0  0  0  0  0  0  0  0  0
   16.0768   -3.0871   15.4933 C   0  0  0  0  0  0  0  0  0  0  0  0
   16.4768   -4.5621   15.4179 C   0  0  0  0  0  0  0  0  0  0  0  0
   15.6402   -2.4245   14.1629 C   0  0  0  0  0  0  0  0  0  0  0  0
   14.3064   -1.7315   14.4655 C   0  0  0  0  0  0  0  0  0  0  0  0
   14.2732   -1.6475   15.9393 N   0  0  0  0  0  0  0  0  0  0  0  0
   14.7178   -0.4925   16.6612 C   0  0  0  0  0  0  0  0  0  0  0  0
   15.1570   -0.6165   17.9385 C   0  0  0  0  0  0  0  0  0  0  0  0
   15.5892    0.5944   18.6459 C   0  0  0  0  0  0  0  0  0  0  0  0
   15.5541    1.7991   18.1936 N   0  0  0  0  0  0  0  0  0  0  0  0
   15.0778    1.9475   16.9294 C   0  0  0  0  0  0  0  0  0  0  0  0
   14.8884    3.0864   16.2975 N   0  0  0  0  0  0  0  0  0  0  0  0
   14.2963    2.7655   15.1185 C   0  0  0  0  0  0  0  0  0  0  0  0
   14.1024    1.4110   15.0255 C   0  0  0  0  0  0  0  0  0  0  0  0
   14.6519    0.8493   16.1574 N   0  0  0  0  0  0  0  0  0  0  0  0
   14.8162   -2.9622   16.3492 C   0  0  0  0  0  0  0  0  0  0  0  0
   20.4234   -2.8799   14.0164 H   0  0  0  0  0  0  0  0  0  0  0  0
   18.7435   -3.4166   13.9338 H   0  0  0  0  0  0  0  0  0  0  0  0
   19.1193   -1.7242   14.2461 H   0  0  0  0  0  0  0  0  0  0  0  0
   19.9934   -4.7205   17.2583 H   0  0  0  0  0  0  0  0  0  0  0  0
   21.0158   -4.5773   15.8152 H   0  0  0  0  0  0  0  0  0  0  0  0
   19.3605   -5.1964   15.6921 H   0  0  0  0  0  0  0  0  0  0  0  0
   20.3910   -2.2268   17.7810 H   0  0  0  0  0  0  0  0  0  0  0  0
   19.9984   -1.0081   16.5809 H   0  0  0  0  0  0  0  0  0  0  0  0
   21.4023   -2.0614   16.3276 H   0  0  0  0  0  0  0  0  0  0  0  0
   17.2246   -4.7500   14.6469 H   0  0  0  0  0  0  0  0  0  0  0  0
   16.8788   -4.9291   16.3698 H   0  0  0  0  0  0  0  0  0  0  0  0
   15.6277   -5.2044   15.2324 H   0  0  0  0  0  0  0  0  0  0  0  0
   16.3639   -1.6701   13.8288 H   0  0  0  0  0  0  0  0  0  0  0  0
   15.5572   -3.1038   13.3178 H   0  0  0  0  0  0  0  0  0  0  0  0
   13.4559   -2.3339   14.1288 H   0  0  0  0  0  0  0  0  0  0  0  0
   14.2677   -0.8065   13.9066 H   0  0  0  0  0  0  0  0  0  0  0  0
   15.2196   -1.5191   18.5219 H   0  0  0  0  0  0  0  0  0  0  0  0
   15.9727    0.4272   19.6664 H   0  0  0  0  0  0  0  0  0  0  0  0
   13.9859    3.5279   14.4164 H   0  0  0  0  0  0  0  0  0  0  0  0
   13.5381    0.8635   14.2942 H   0  0  0  0  0  0  0  0  0  0  0  0
   15.0117   -3.0968   17.4142 H   0  0  0  0  0  0  0  0  0  0  0  0
   14.0707   -3.7275   16.0956 H   0  0  0  0  0  0  0  0  0  0  0  0
  1  2  1  0
  2  3  1  0
  2  4  1  0
  2  5  1  0
  5  6  1  0
  6  7  2  0
  6  8  1  0
  8  9  1  0
  8 10  1  0
 10 11  1  0
 11 12  1  0
 12 13  1  0
 13 14  2  0
 14 15  1  0
 15 16  2  0
 16 17  1  0
 17 18  2  0
 18 19  1  0
 19 20  2  0
 20 21  1  0
 12 22  1  0
 22  8  1  0
 21 13  1  0
 21 17  1  0
  1 23  1  0
  1 24  1  0
  1 25  1  0
  3 26  1  0
  3 27  1  0
  3 28  1  0
  4 29  1  0
  4 30  1  0
  4 31  1  0
  9 32  1  0
  9 33  1  0
  9 34  1  0
 10 35  1  0
 10 36  1  0
 11 37  1  0
 11 38  1  0
 14 39  1  0
 15 40  1  0
 19 41  1  0
 20 42  1  0
 22 43  1  0
 22 44  1  0
M  END
>  <Energy>  (915) 
92.099982508366693

>  <compound_id>  (915) 
8771

>  <target_id>  (915) 
1

>  <reference_id>  (915) 
124

>  <inspiration_ids>  (915) 
[124, 106]

>  <energy_score>  (915) 
-20.786301179705646

>  <distance_score>  (915) 
2.4830099141257578

>  <path>  (915) 
/opt/xchem-fragalysis-2/maxwin/BulkDock/SCRATCH/511014/C8771-P124/C8771-P124.minimised.mol

>  <scratch_subdir>  (915) 
/opt/xchem-fragalysis-2/maxwin/BulkDock/SCRATCH/511014/C8771-P124

>  <fragmenstein_runtime>  (915) 
17.844191789627075

>  <fragmenstein_outcome>  (915) 
too moved

>  <fragmenstein_mode>  (915) 
expansion

>  <fragmenstein_error>  (915) 


$$$$
C8771-P106
     RDKit          3D

 44 46  0  0  0  0  0  0  0  0999 V2000
   18.6975   -2.5612   14.3277 C   0  0  0  0  0  0  0  0  0  0  0  0
   18.2931   -2.5511   15.8055 C   0  0  0  0  0  0  0  0  0  0  0  0
   18.7001   -3.8824   16.4416 C   0  0  0  0  0  0  0  0  0  0  0  0
   18.9086   -1.3466   16.5132 C   0  0  0  0  0  0  0  0  0  0  0  0
   16.8614   -2.4524   15.7400 O   0  0  0  0  0  0  0  0  0  0  0  0
   16.0649   -2.5486   16.8352 C   0  0  0  0  0  0  0  0  0  0  0  0
   16.4049   -2.3819   17.9942 O   0  0  0  0  0  0  0  0  0  0  0  0
   14.7011   -3.0050   16.3528 C   0  0  0  0  0  0  0  0  0  0  0  0
   14.8845   -4.5095   16.2705 C   0  0  0  0  0  0  0  0  0  0  0  0
   14.3167   -2.2212   15.0630 C   0  0  0  0  0  0  0  0  0  0  0  0
   12.8504   -1.8790   15.2553 C   0  0  0  0  0  0  0  0  0  0  0  0
   12.8456   -1.5471   16.7068 N   0  0  0  0  0  0  0  0  0  0  0  0
   13.3603   -0.2725   17.1005 C   0  0  0  0  0  0  0  0  0  0  0  0
   14.2717   -0.1249   18.0877 C   0  0  0  0  0  0  0  0  0  0  0  0
   14.8701    1.2050   18.2704 C   0  0  0  0  0  0  0  0  0  0  0  0
   14.5767    2.2713   17.6071 N   0  0  0  0  0  0  0  0  0  0  0  0
   13.5775    2.1468   16.6931 C   0  0  0  0  0  0  0  0  0  0  0  0
   13.0618    3.0888   15.9325 N   0  0  0  0  0  0  0  0  0  0  0  0
   12.0314    2.5061   15.2526 C   0  0  0  0  0  0  0  0  0  0  0  0
   11.9227    1.1774   15.5756 C   0  0  0  0  0  0  0  0  0  0  0  0
   12.9560    0.9192   16.4496 N   0  0  0  0  0  0  0  0  0  0  0  0
   13.5149   -2.7447   17.2954 C   0  0  0  0  0  0  0  0  0  0  0  0
   18.3686   -1.6436   13.8254 H   0  0  0  0  0  0  0  0  0  0  0  0
   19.7824   -2.6483   14.2075 H   0  0  0  0  0  0  0  0  0  0  0  0
   18.2231   -3.3931   13.7934 H   0  0  0  0  0  0  0  0  0  0  0  0
   18.4314   -3.9216   17.5022 H   0  0  0  0  0  0  0  0  0  0  0  0
   19.7811   -4.0429   16.3680 H   0  0  0  0  0  0  0  0  0  0  0  0
   18.1910   -4.7235   15.9576 H   0  0  0  0  0  0  0  0  0  0  0  0
   18.6622   -1.3350   17.5794 H   0  0  0  0  0  0  0  0  0  0  0  0
   18.5251   -0.4099   16.0932 H   0  0  0  0  0  0  0  0  0  0  0  0
   20.0001   -1.3477   16.4249 H   0  0  0  0  0  0  0  0  0  0  0  0
   15.2586   -4.8936   17.2283 H   0  0  0  0  0  0  0  0  0  0  0  0
   13.9350   -5.0096   16.0790 H   0  0  0  0  0  0  0  0  0  0  0  0
   15.6236   -4.7967   15.5169 H   0  0  0  0  0  0  0  0  0  0  0  0
   14.8696   -1.2704   15.0203 H   0  0  0  0  0  0  0  0  0  0  0  0
   14.5517   -2.6914   14.1139 H   0  0  0  0  0  0  0  0  0  0  0  0
   12.2034   -2.7443   15.0662 H   0  0  0  0  0  0  0  0  0  0  0  0
   12.5426   -1.0794   14.5830 H   0  0  0  0  0  0  0  0  0  0  0  0
   14.6666   -0.8879   18.7376 H   0  0  0  0  0  0  0  0  0  0  0  0
   15.6590    1.2613   19.0393 H   0  0  0  0  0  0  0  0  0  0  0  0
   11.4087    3.0812   14.5804 H   0  0  0  0  0  0  0  0  0  0  0  0
   11.2083    0.4236   15.2832 H   0  0  0  0  0  0  0  0  0  0  0  0
   13.7833   -2.6544   18.3507 H   0  0  0  0  0  0  0  0  0  0  0  0
   12.7812   -3.5616   17.2580 H   0  0  0  0  0  0  0  0  0  0  0  0
  1  2  1  0
  2  3  1  0
  2  4  1  0
  2  5  1  0
  5  6  1  0
  6  7  2  0
  6  8  1  0
  8  9  1  0
  8 10  1  0
 10 11  1  0
 11 12  1  0
 12 13  1  0
 13 14  2  0
 14 15  1  0
 15 16  2  0
 16 17  1  0
 17 18  2  0
 18 19  1  0
 19 20  2  0
 20 21  1  0
 12 22  1  0
 22  8  1  0
 21 13  1  0
 21 17  1  0
  1 23  1  0
  1 24  1  0
  1 25  1  0
  3 26  1  0
  3 27  1  0
  3 28  1  0
  4 29  1  0
  4 30  1  0
  4 31  1  0
  9 32  1  0
  9 33  1  0
  9 34  1  0
 10 35  1  0
 10 36  1  0
 11 37  1  0
 11 38  1  0
 14 39  1  0
 15 40  1  0
 19 41  1  0
 20 42  1  0
 22 43  1  0
 22 44  1  0
M  END
>  <Energy>  (916) 
76.583459776254045

>  <compound_id>  (916) 
8771

>  <target_id>  (916) 
1

>  <reference_id>  (916) 
106

>  <inspiration_ids>  (916) 
[124, 106]

>  <energy_score>  (916) 
-36.30282391181919

>  <distance_score>  (916) 
1.8224181159123736

>  <path>  (916) 
/opt/xchem-fragalysis-2/maxwin/BulkDock/SCRATCH/511014/C8771-P106/C8771-P106.minimised.mol

>  <scratch_subdir>  (916) 
/opt/xchem-fragalysis-2/maxwin/BulkDock/SCRATCH/511014/C8771-P106

>  <fragmenstein_runtime>  (916) 
19.214081525802612

>  <fragmenstein_outcome>  (916) 
too moved

>  <fragmenstein_mode>  (916) 
expansion

>  <fragmenstein_error>  (916) 


$$$$
C8773-P124
     RDKit          3D

 44 47  0  0  0  0  0  0  0  0999 V2000
   14.1995    2.9678   17.2193 O   0  0  0  0  0  0  0  0  0  0  0  0
   15.4082    2.5428   16.6119 C   0  0  0  0  0  0  0  0  0  0  0  0
   15.4357    1.0152   16.3987 C   0  0  0  0  0  0  0  0  0  0  0  0
   14.3038    0.4824   15.4595 C   0  0  0  0  0  0  0  0  0  0  0  0
   14.0793    1.2495   14.1538 C   0  0  0  0  0  0  0  0  0  0  0  0
   13.1928    0.4702   13.1766 C   0  0  0  0  0  0  0  0  0  0  0  0
   12.3321   -0.4503   13.8266 O   0  0  0  0  0  0  0  0  0  0  0  0
   13.0326   -1.5031   14.4633 C   0  0  0  0  0  0  0  0  0  0  0  0
   14.3156   -1.0275   15.1437 C   0  0  0  0  0  0  0  0  0  0  0  0
   15.4524    0.3239   17.8071 C   0  0  0  0  0  0  0  0  0  0  0  0
   16.8904   -0.1529   17.9455 C   0  0  0  0  0  0  0  0  0  0  0  0
   17.2198   -0.5134   16.5720 N   0  0  0  0  0  0  0  0  0  0  0  0
   17.3166   -1.7963   16.0006 C   0  0  0  0  0  0  0  0  0  0  0  0
   17.7395   -1.9381   14.7276 C   0  0  0  0  0  0  0  0  0  0  0  0
   17.9422   -3.3032   14.2066 C   0  0  0  0  0  0  0  0  0  0  0  0
   17.7860   -4.3957   14.8708 N   0  0  0  0  0  0  0  0  0  0  0  0
   17.3353   -4.2536   16.1454 C   0  0  0  0  0  0  0  0  0  0  0  0
   17.1343   -5.2076   17.0286 N   0  0  0  0  0  0  0  0  0  0  0  0
   16.6100   -4.6024   18.1293 C   0  0  0  0  0  0  0  0  0  0  0  0
   16.4554   -3.2579   17.9134 C   0  0  0  0  0  0  0  0  0  0  0  0
   17.0391   -2.9976   16.6958 N   0  0  0  0  0  0  0  0  0  0  0  0
   16.7928    0.6427   15.7864 C   0  0  0  0  0  0  0  0  0  0  0  0
   14.1768    3.9395   17.1746 H   0  0  0  0  0  0  0  0  0  0  0  0
   16.2325    2.8648   17.2591 H   0  0  0  0  0  0  0  0  0  0  0  0
   15.5179    3.0706   15.6581 H   0  0  0  0  0  0  0  0  0  0  0  0
   13.3986    0.6774   15.9793 H   0  0  0  0  0  0  0  0  0  0  0  0
   15.0199    1.5026   13.6530 H   0  0  0  0  0  0  0  0  0  0  0  0
   13.5931    2.2070   14.3807 H   0  0  0  0  0  0  0  0  0  0  0  0
   13.8112   -0.0716   12.4496 H   0  0  0  0  0  0  0  0  0  0  0  0
   12.5759    1.1697   12.6024 H   0  0  0  0  0  0  0  0  0  0  0  0
   12.3550   -1.9488   15.1988 H   0  0  0  0  0  0  0  0  0  0  0  0
   13.2539   -2.2760   13.7215 H   0  0  0  0  0  0  0  0  0  0  0  0
   15.1307   -1.2350   14.4447 H   0  0  0  0  0  0  0  0  0  0  0  0
   14.4790   -1.6465   16.0280 H   0  0  0  0  0  0  0  0  0  0  0  0
   14.7736   -0.5306   17.8500 H   0  0  0  0  0  0  0  0  0  0  0  0
   15.1792    0.9929   18.6294 H   0  0  0  0  0  0  0  0  0  0  0  0
   17.0625   -0.9124   18.7045 H   0  0  0  0  0  0  0  0  0  0  0  0
   17.5262    0.6905   18.2498 H   0  0  0  0  0  0  0  0  0  0  0  0
   18.0351   -1.1260   14.0813 H   0  0  0  0  0  0  0  0  0  0  0  0
   18.2846   -3.3595   13.1602 H   0  0  0  0  0  0  0  0  0  0  0  0
   16.3225   -5.1746   19.0021 H   0  0  0  0  0  0  0  0  0  0  0  0
   15.9778   -2.5188   18.5280 H   0  0  0  0  0  0  0  0  0  0  0  0
   17.5375    1.4389   15.9197 H   0  0  0  0  0  0  0  0  0  0  0  0
   16.7388    0.4695   14.7086 H   0  0  0  0  0  0  0  0  0  0  0  0
  1  2  1  0
  2  3  1  0
  3  4  1  0
  4  5  1  0
  5  6  1  0
  6  7  1  0
  7  8  1  0
  8  9  1  0
  3 10  1  0
 10 11  1  0
 11 12  1  0
 12 13  1  0
 13 14  2  0
 14 15  1  0
 15 16  2  0
 16 17  1  0
 17 18  2  0
 18 19  1  0
 19 20  2  0
 20 21  1  0
 12 22  1  0
 22  3  1  0
  9  4  1  0
 21 13  1  0
 21 17  1  0
  1 23  1  0
  2 24  1  0
  2 25  1  0
  4 26  1  0
  5 27  1  0
  5 28  1  0
  6 29  1  0
  6 30  1  0
  8 31  1  0
  8 32  1  0
  9 33  1  0
  9 34  1  0
 10 35  1  0
 10 36  1  0
 11 37  1  0
 11 38  1  0
 14 39  1  0
 15 40  1  0
 19 41  1  0
 20 42  1  0
 22 43  1  0
 22 44  1  0
M  END
>  <Energy>  (917) 
104.77809337846597

>  <compound_id>  (917) 
8773

>  <target_id>  (917) 
1

>  <reference_id>  (917) 
124

>  <inspiration_ids>  (917) 
[124, 106]

>  <energy_score>  (917) 
-36.02082789988776

>  <distance_score>  (917) 
2.9048154489146047

>  <path>  (917) 
/opt/xchem-fragalysis-2/maxwin/BulkDock/SCRATCH/511014/C8773-P124/C8773-P124.minimised.mol

>  <scratch_subdir>  (917) 
/opt/xchem-fragalysis-2/maxwin/BulkDock/SCRATCH/511014/C8773-P124

>  <fragmenstein_runtime>  (917) 
38.53444957733154

>  <fragmenstein_outcome>  (917) 
too moved

>  <fragmenstein_mode>  (917) 
expansion

>  <fragmenstein_error>  (917) 


$$$$
C8773-P106
     RDKit          3D

 44 47  0  0  0  0  0  0  0  0999 V2000
   14.2644    3.6182   17.4286 O   0  0  0  0  0  0  0  0  0  0  0  0
   15.2570    2.6761   17.0554 C   0  0  0  0  0  0  0  0  0  0  0  0
   14.7559    1.2146   16.9643 C   0  0  0  0  0  0  0  0  0  0  0  0
   13.5827    1.0086   15.9141 C   0  0  0  0  0  0  0  0  0  0  0  0
   12.3509    1.8815   16.1883 C   0  0  0  0  0  0  0  0  0  0  0  0
   11.0747    1.4187   15.4968 C   0  0  0  0  0  0  0  0  0  0  0  0
   10.8595    0.0227   15.6516 O   0  0  0  0  0  0  0  0  0  0  0  0
   11.8813   -0.6918   14.9671 C   0  0  0  0  0  0  0  0  0  0  0  0
   13.1823   -0.4782   15.7192 C   0  0  0  0  0  0  0  0  0  0  0  0
   14.4078    0.7041   18.3883 C   0  0  0  0  0  0  0  0  0  0  0  0
   15.5626   -0.1906   18.7962 C   0  0  0  0  0  0  0  0  0  0  0  0
   16.0720   -0.7060   17.5356 N   0  0  0  0  0  0  0  0  0  0  0  0
   15.9243   -2.0265   17.1203 C   0  0  0  0  0  0  0  0  0  0  0  0
   14.8570   -2.7985   17.3782 C   0  0  0  0  0  0  0  0  0  0  0  0
   14.8734   -4.1432   16.7735 C   0  0  0  0  0  0  0  0  0  0  0  0
   15.8336   -4.6719   16.0818 N   0  0  0  0  0  0  0  0  0  0  0  0
   16.9431   -3.9037   15.9113 C   0  0  0  0  0  0  0  0  0  0  0  0
   18.0871   -4.2159   15.3356 N   0  0  0  0  0  0  0  0  0  0  0  0
   18.8771   -3.1042   15.4387 C   0  0  0  0  0  0  0  0  0  0  0  0
   18.2192   -2.0959   16.0974 C   0  0  0  0  0  0  0  0  0  0  0  0
   16.9806   -2.6038   16.3988 N   0  0  0  0  0  0  0  0  0  0  0  0
   15.9827    0.3655   16.5472 C   0  0  0  0  0  0  0  0  0  0  0  0
   13.9200    3.3952   18.3098 H   0  0  0  0  0  0  0  0  0  0  0  0
   16.0812    2.7693   17.7727 H   0  0  0  0  0  0  0  0  0  0  0  0
   15.6432    2.9952   16.0804 H   0  0  0  0  0  0  0  0  0  0  0  0
   13.9699    1.3398   14.9386 H   0  0  0  0  0  0  0  0  0  0  0  0
   12.1766    1.9288   17.2632 H   0  0  0  0  0  0  0  0  0  0  0  0
   12.5421    2.9121   15.8685 H   0  0  0  0  0  0  0  0  0  0  0  0
   11.0920    1.6753   14.4302 H   0  0  0  0  0  0  0  0  0  0  0  0
   10.2149    1.9392   15.9323 H   0  0  0  0  0  0  0  0  0  0  0  0
   11.6138   -1.7536   14.9740 H   0  0  0  0  0  0  0  0  0  0  0  0
   11.9511   -0.3718   13.9209 H   0  0  0  0  0  0  0  0  0  0  0  0
   13.0317   -0.9361   16.6966 H   0  0  0  0  0  0  0  0  0  0  0  0
   13.9729   -1.0256   15.1987 H   0  0  0  0  0  0  0  0  0  0  0  0
   13.4919    0.1179   18.3833 H   0  0  0  0  0  0  0  0  0  0  0  0
   14.2585    1.4992   19.1246 H   0  0  0  0  0  0  0  0  0  0  0  0
   15.2532   -0.9699   19.5008 H   0  0  0  0  0  0  0  0  0  0  0  0
   16.3474    0.4009   19.2827 H   0  0  0  0  0  0  0  0  0  0  0  0
   13.9939   -2.5051   17.9546 H   0  0  0  0  0  0  0  0  0  0  0  0
   13.9451   -4.7162   16.9374 H   0  0  0  0  0  0  0  0  0  0  0  0
   19.8843   -3.0943   15.0436 H   0  0  0  0  0  0  0  0  0  0  0  0
   18.5212   -1.1023   16.3893 H   0  0  0  0  0  0  0  0  0  0  0  0
   16.9149    0.9423   16.6012 H   0  0  0  0  0  0  0  0  0  0  0  0
   15.9204   -0.0011   15.5162 H   0  0  0  0  0  0  0  0  0  0  0  0
  1  2  1  0
  2  3  1  0
  3  4  1  0
  4  5  1  0
  5  6  1  0
  6  7  1  0
  7  8  1  0
  8  9  1  0
  3 10  1  0
 10 11  1  0
 11 12  1  0
 12 13  1  0
 13 14  2  0
 14 15  1  0
 15 16  2  0
 16 17  1  0
 17 18  2  0
 18 19  1  0
 19 20  2  0
 20 21  1  0
 12 22  1  0
 22  3  1  0
  9  4  1  0
 21 13  1  0
 21 17  1  0
  1 23  1  0
  2 24  1  0
  2 25  1  0
  4 26  1  0
  5 27  1  0
  5 28  1  0
  6 29  1  0
  6 30  1  0
  8 31  1  0
  8 32  1  0
  9 33  1  0
  9 34  1  0
 10 35  1  0
 10 36  1  0
 11 37  1  0
 11 38  1  0
 14 39  1  0
 15 40  1  0
 19 41  1  0
 20 42  1  0
 22 43  1  0
 22 44  1  0
M  END
>  <Energy>  (918) 
93.910912604938076

>  <compound_id>  (918) 
8773

>  <target_id>  (918) 
1

>  <reference_id>  (918) 
106

>  <inspiration_ids>  (918) 
[124, 106]

>  <energy_score>  (918) 
-46.88800867341732

>  <distance_score>  (918) 
2.411769635199434

>  <path>  (918) 
/opt/xchem-fragalysis-2/maxwin/BulkDock/SCRATCH/511014/C8773-P106/C8773-P106.minimised.mol

>  <scratch_subdir>  (918) 
/opt/xchem-fragalysis-2/maxwin/BulkDock/SCRATCH/511014/C8773-P106

>  <fragmenstein_runtime>  (918) 
39.64594578742981

>  <fragmenstein_outcome>  (918) 
too moved

>  <fragmenstein_mode>  (918) 
expansion

>  <fragmenstein_error>  (918) 


$$$$
C8774-P124
     RDKit          3D

 37 39  0  0  0  0  0  0  0  0999 V2000
   14.9126    1.8872   17.8069 F   0  0  0  0  0  0  0  0  0  0  0  0
   16.1900    1.6262   18.1576 C   0  0  0  0  0  0  0  0  0  0  0  0
   16.9497    1.6371   17.0405 F   0  0  0  0  0  0  0  0  0  0  0  0
   16.6075    2.6533   18.9369 F   0  0  0  0  0  0  0  0  0  0  0  0
   16.3239    0.2928   18.9291 C   0  0  0  0  0  0  0  0  0  0  0  0
   16.1021   -1.0086   18.2395 N   0  0  0  0  0  0  0  0  0  0  0  0
   16.1575   -2.1298   19.1981 C   0  0  0  0  0  0  0  0  0  0  0  0
   16.5725   -3.3547   18.3783 C   0  0  0  0  0  0  0  0  0  0  0  0
   16.8290   -2.8265   16.9694 C   0  0  0  0  0  0  0  0  0  0  0  0
   15.6438   -3.1139   16.0321 C   0  0  0  0  0  0  0  0  0  0  0  0
   14.3508   -2.7334   16.6226 N   0  0  0  0  0  0  0  0  0  0  0  0
   13.3990   -2.2447   15.7437 C   0  0  0  0  0  0  0  0  0  0  0  0
   12.2653   -2.8999   15.4784 C   0  0  0  0  0  0  0  0  0  0  0  0
   11.3976   -2.2380   14.4915 C   0  0  0  0  0  0  0  0  0  0  0  0
   11.6433   -1.1424   13.8493 N   0  0  0  0  0  0  0  0  0  0  0  0
   12.7888   -0.4892   14.1528 C   0  0  0  0  0  0  0  0  0  0  0  0
   13.2479    0.6620   13.7023 N   0  0  0  0  0  0  0  0  0  0  0  0
   14.3174    0.9738   14.4838 C   0  0  0  0  0  0  0  0  0  0  0  0
   14.5576   -0.0351   15.3689 C   0  0  0  0  0  0  0  0  0  0  0  0
   13.6225   -1.0006   15.1240 N   0  0  0  0  0  0  0  0  0  0  0  0
   17.1287   -1.3485   17.2406 C   0  0  0  0  0  0  0  0  0  0  0  0
   17.3220    0.2835   19.3869 H   0  0  0  0  0  0  0  0  0  0  0  0
   15.6065    0.3518   19.7580 H   0  0  0  0  0  0  0  0  0  0  0  0
   15.1808   -2.2791   19.6706 H   0  0  0  0  0  0  0  0  0  0  0  0
   16.8971   -1.9616   19.9912 H   0  0  0  0  0  0  0  0  0  0  0  0
   15.8200   -4.1494   18.4122 H   0  0  0  0  0  0  0  0  0  0  0  0
   17.5002   -3.7686   18.7926 H   0  0  0  0  0  0  0  0  0  0  0  0
   17.7167   -3.3068   16.5401 H   0  0  0  0  0  0  0  0  0  0  0  0
   15.6109   -4.1908   15.8315 H   0  0  0  0  0  0  0  0  0  0  0  0
   15.8259   -2.6203   15.0695 H   0  0  0  0  0  0  0  0  0  0  0  0
   14.5659   -1.9799   17.2916 H   0  0  0  0  0  0  0  0  0  0  0  0
   11.9862   -3.8470   15.9145 H   0  0  0  0  0  0  0  0  0  0  0  0
   10.4575   -2.7732   14.3124 H   0  0  0  0  0  0  0  0  0  0  0  0
   14.8428    1.9130   14.3741 H   0  0  0  0  0  0  0  0  0  0  0  0
   15.2597   -0.1000   16.1599 H   0  0  0  0  0  0  0  0  0  0  0  0
   18.1341   -1.2511   17.6738 H   0  0  0  0  0  0  0  0  0  0  0  0
   17.1185   -0.7507   16.3284 H   0  0  0  0  0  0  0  0  0  0  0  0
  1  2  1  0
  2  3  1  0
  2  4  1  0
  2  5  1  0
  5  6  1  0
  6  7  1  0
  7  8  1  0
  8  9  1  0
  9 10  1  0
 10 11  1  0
 11 12  1  0
 12 13  2  0
 13 14  1  0
 14 15  2  0
 15 16  1  0
 16 17  2  0
 17 18  1  0
 18 19  2  0
 19 20  1  0
  9 21  1  0
 21  6  1  0
 20 12  1  0
 20 16  1  0
  5 22  1  0
  5 23  1  0
  7 24  1  0
  7 25  1  0
  8 26  1  0
  8 27  1  0
  9 28  1  0
 10 29  1  0
 10 30  1  0
 11 31  1  0
 13 32  1  0
 14 33  1  0
 18 34  1  0
 19 35  1  0
 21 36  1  0
 21 37  1  0
M  END
>  <Energy>  (919) 
131.64876578296921

>  <compound_id>  (919) 
8774

>  <target_id>  (919) 
1

>  <reference_id>  (919) 
124

>  <inspiration_ids>  (919) 
[124, 106]

>  <energy_score>  (919) 
-28.5442816457863

>  <distance_score>  (919) 
2.281136570807836

>  <path>  (919) 
/opt/xchem-fragalysis-2/maxwin/BulkDock/SCRATCH/511014/C8774-P124/C8774-P124.minimised.mol

>  <scratch_subdir>  (919) 
/opt/xchem-fragalysis-2/maxwin/BulkDock/SCRATCH/511014/C8774-P124

>  <fragmenstein_runtime>  (919) 
1.2849555015563965

>  <fragmenstein_outcome>  (919) 
too moved

>  <fragmenstein_mode>  (919) 
expansion

>  <fragmenstein_error>  (919) 


$$$$
C8774-P106
     RDKit          3D

 37 39  0  0  0  0  0  0  0  0999 V2000
   15.7833    2.8749   18.3169 F   0  0  0  0  0  0  0  0  0  0  0  0
   16.5412    1.7853   18.5834 C   0  0  0  0  0  0  0  0  0  0  0  0
   17.7127    2.2242   19.1049 F   0  0  0  0  0  0  0  0  0  0  0  0
   15.9159    1.0789   19.5514 F   0  0  0  0  0  0  0  0  0  0  0  0
   16.7949    0.9662   17.3033 C   0  0  0  0  0  0  0  0  0  0  0  0
   16.4041   -0.4521   17.2725 N   0  0  0  0  0  0  0  0  0  0  0  0
   17.2101   -1.3390   18.0966 C   0  0  0  0  0  0  0  0  0  0  0  0
   16.7024   -2.7049   17.6564 C   0  0  0  0  0  0  0  0  0  0  0  0
   16.2922   -2.5122   16.1946 C   0  0  0  0  0  0  0  0  0  0  0  0
   14.9447   -3.1278   15.8237 C   0  0  0  0  0  0  0  0  0  0  0  0
   13.7673   -2.6715   16.5713 N   0  0  0  0  0  0  0  0  0  0  0  0
   12.9746   -1.6790   15.9996 C   0  0  0  0  0  0  0  0  0  0  0  0
   12.2581   -1.8724   14.8796 C   0  0  0  0  0  0  0  0  0  0  0  0
   11.6849   -0.6503   14.2730 C   0  0  0  0  0  0  0  0  0  0  0  0
   11.7552    0.5595   14.7223 N   0  0  0  0  0  0  0  0  0  0  0  0
   12.4454    0.7155   15.8755 C   0  0  0  0  0  0  0  0  0  0  0  0
   12.7020    1.8322   16.5165 N   0  0  0  0  0  0  0  0  0  0  0  0
   13.3824    1.4695   17.6363 C   0  0  0  0  0  0  0  0  0  0  0  0
   13.5909    0.1139   17.6679 C   0  0  0  0  0  0  0  0  0  0  0  0
   13.0180   -0.3753   16.5243 N   0  0  0  0  0  0  0  0  0  0  0  0
   16.4160   -1.0151   15.9287 C   0  0  0  0  0  0  0  0  0  0  0  0
   17.8557    1.0602   17.0357 H   0  0  0  0  0  0  0  0  0  0  0  0
   16.2508    1.4799   16.4995 H   0  0  0  0  0  0  0  0  0  0  0  0
   17.0534   -1.1829   19.1679 H   0  0  0  0  0  0  0  0  0  0  0  0
   18.2801   -1.2391   17.8768 H   0  0  0  0  0  0  0  0  0  0  0  0
   15.8647   -3.0213   18.2866 H   0  0  0  0  0  0  0  0  0  0  0  0
   17.4844   -3.4656   17.7550 H   0  0  0  0  0  0  0  0  0  0  0  0
   17.0429   -3.0160   15.5688 H   0  0  0  0  0  0  0  0  0  0  0  0
   15.0144   -4.2124   15.9592 H   0  0  0  0  0  0  0  0  0  0  0  0
   14.8132   -2.9168   14.7596 H   0  0  0  0  0  0  0  0  0  0  0  0
   14.0262   -2.4385   17.5289 H   0  0  0  0  0  0  0  0  0  0  0  0
   12.1607   -2.8133   14.3597 H   0  0  0  0  0  0  0  0  0  0  0  0
   11.2074   -0.7892   13.3035 H   0  0  0  0  0  0  0  0  0  0  0  0
   13.6402    2.2051   18.3870 H   0  0  0  0  0  0  0  0  0  0  0  0
   14.0718   -0.5109   18.4043 H   0  0  0  0  0  0  0  0  0  0  0  0
   17.3722   -0.8101   15.4289 H   0  0  0  0  0  0  0  0  0  0  0  0
   15.6196   -0.6188   15.2929 H   0  0  0  0  0  0  0  0  0  0  0  0
  1  2  1  0
  2  3  1  0
  2  4  1  0
  2  5  1  0
  5  6  1  0
  6  7  1  0
  7  8  1  0
  8  9  1  0
  9 10  1  0
 10 11  1  0
 11 12  1  0
 12 13  2  0
 13 14  1  0
 14 15  2  0
 15 16  1  0
 16 17  2  0
 17 18  1  0
 18 19  2  0
 19 20  1  0
  9 21  1  0
 21  6  1  0
 20 12  1  0
 20 16  1  0
  5 22  1  0
  5 23  1  0
  7 24  1  0
  7 25  1  0
  8 26  1  0
  8 27  1  0
  9 28  1  0
 10 29  1  0
 10 30  1  0
 11 31  1  0
 13 32  1  0
 14 33  1  0
 18 34  1  0
 19 35  1  0
 21 36  1  0
 21 37  1  0
M  END
>  <Energy>  (920) 
133.08601926865444

>  <compound_id>  (920) 
8774

>  <target_id>  (920) 
1

>  <reference_id>  (920) 
106

>  <inspiration_ids>  (920) 
[124, 106]

>  <energy_score>  (920) 
-27.10702816010121

>  <distance_score>  (920) 
1.8063794552034083

>  <path>  (920) 
/opt/xchem-fragalysis-2/maxwin/BulkDock/SCRATCH/511014/C8774-P106/C8774-P106.minimised.mol

>  <scratch_subdir>  (920) 
/opt/xchem-fragalysis-2/maxwin/BulkDock/SCRATCH/511014/C8774-P106

>  <fragmenstein_runtime>  (920) 
1.5006263256072998

>  <fragmenstein_outcome>  (920) 
too moved

>  <fragmenstein_mode>  (920) 
expansion

>  <fragmenstein_error>  (920) 


$$$$
C8775-P124
     RDKit          3D

 34 36  0  0  0  0  0  0  0  0999 V2000
   15.7234    2.1730   16.8616 F   0  0  0  0  0  0  0  0  0  0  0  0
   15.7554    2.1807   18.2116 C   0  0  0  0  0  0  0  0  0  0  0  0
   14.5542    2.6503   18.6286 F   0  0  0  0  0  0  0  0  0  0  0  0
   16.6980    3.0696   18.5966 F   0  0  0  0  0  0  0  0  0  0  0  0
   16.0176    0.7805   18.8248 C   0  0  0  0  0  0  0  0  0  0  0  0
   16.7328   -0.2030   17.9768 N   0  0  0  0  0  0  0  0  0  0  0  0
   17.1308   -1.4203   18.7106 C   0  0  0  0  0  0  0  0  0  0  0  0
   16.7621   -2.5967   17.8124 C   0  0  0  0  0  0  0  0  0  0  0  0
   15.4921   -2.0810   17.1872 C   0  0  0  0  0  0  0  0  0  0  0  0
   15.0680   -2.8612   16.0310 N   0  0  0  0  0  0  0  0  0  0  0  0
   13.7843   -2.6272   15.5622 C   0  0  0  0  0  0  0  0  0  0  0  0
   12.7330   -3.3419   15.9906 C   0  0  0  0  0  0  0  0  0  0  0  0
   11.4395   -2.9539   15.4032 C   0  0  0  0  0  0  0  0  0  0  0  0
   11.1994   -1.9135   14.6795 N   0  0  0  0  0  0  0  0  0  0  0  0
   12.2812   -1.1810   14.3009 C   0  0  0  0  0  0  0  0  0  0  0  0
   12.3324   -0.0574   13.6187 N   0  0  0  0  0  0  0  0  0  0  0  0
   13.6496    0.2710   13.5075 C   0  0  0  0  0  0  0  0  0  0  0  0
   14.4334   -0.7195   14.0359 C   0  0  0  0  0  0  0  0  0  0  0  0
   13.5583   -1.5721   14.6642 N   0  0  0  0  0  0  0  0  0  0  0  0
   15.8833   -0.6407   16.8616 C   0  0  0  0  0  0  0  0  0  0  0  0
   15.0565    0.3549   19.1426 H   0  0  0  0  0  0  0  0  0  0  0  0
   16.5980    0.9410   19.7422 H   0  0  0  0  0  0  0  0  0  0  0  0
   18.2021   -1.4077   18.9335 H   0  0  0  0  0  0  0  0  0  0  0  0
   16.5893   -1.5121   19.6611 H   0  0  0  0  0  0  0  0  0  0  0  0
   16.6092   -3.5209   18.3781 H   0  0  0  0  0  0  0  0  0  0  0  0
   17.5408   -2.7772   17.0609 H   0  0  0  0  0  0  0  0  0  0  0  0
   14.6984   -2.0882   17.9490 H   0  0  0  0  0  0  0  0  0  0  0  0
   15.7524   -2.7627   15.2757 H   0  0  0  0  0  0  0  0  0  0  0  0
   12.7898   -4.1700   16.6815 H   0  0  0  0  0  0  0  0  0  0  0  0
   10.6126   -3.6311   15.6317 H   0  0  0  0  0  0  0  0  0  0  0  0
   13.9614    1.1679   12.9885 H   0  0  0  0  0  0  0  0  0  0  0  0
   15.5025   -0.8501   14.0497 H   0  0  0  0  0  0  0  0  0  0  0  0
   16.5011   -0.5950   15.9588 H   0  0  0  0  0  0  0  0  0  0  0  0
   14.9990   -0.0179   16.7001 H   0  0  0  0  0  0  0  0  0  0  0  0
  1  2  1  0
  2  3  1  0
  2  4  1  0
  2  5  1  0
  5  6  1  0
  6  7  1  0
  7  8  1  0
  8  9  1  0
  9 10  1  0
 10 11  1  0
 11 12  2  0
 12 13  1  0
 13 14  2  0
 14 15  1  0
 15 16  2  0
 16 17  1  0
 17 18  2  0
 18 19  1  0
  9 20  1  0
 20  6  1  0
 19 11  1  0
 19 15  1  0
  5 21  1  0
  5 22  1  0
  7 23  1  0
  7 24  1  0
  8 25  1  0
  8 26  1  0
  9 27  1  0
 10 28  1  0
 12 29  1  0
 13 30  1  0
 17 31  1  0
 18 32  1  0
 20 33  1  0
 20 34  1  0
M  END
>  <Energy>  (921) 
154.77172258390385

>  <compound_id>  (921) 
8775

>  <target_id>  (921) 
1

>  <reference_id>  (921) 
124

>  <inspiration_ids>  (921) 
[124, 106]

>  <energy_score>  (921) 
-21.33100776143752

>  <distance_score>  (921) 
2.019065945841336

>  <path>  (921) 
/opt/xchem-fragalysis-2/maxwin/BulkDock/SCRATCH/511014/C8775-P124/C8775-P124.minimised.mol

>  <scratch_subdir>  (921) 
/opt/xchem-fragalysis-2/maxwin/BulkDock/SCRATCH/511014/C8775-P124

>  <fragmenstein_runtime>  (921) 
1.3136425018310547

>  <fragmenstein_outcome>  (921) 
too moved

>  <fragmenstein_mode>  (921) 
expansion

>  <fragmenstein_error>  (921) 


$$$$
C8775-P106
     RDKit          3D

 34 36  0  0  0  0  0  0  0  0999 V2000
   16.9545    2.5962   17.8588 F   0  0  0  0  0  0  0  0  0  0  0  0
   15.9461    1.9573   18.4886 C   0  0  0  0  0  0  0  0  0  0  0  0
   14.8315    2.0820   17.7342 F   0  0  0  0  0  0  0  0  0  0  0  0
   15.7129    2.6119   19.6518 F   0  0  0  0  0  0  0  0  0  0  0  0
   16.2795    0.4732   18.7748 C   0  0  0  0  0  0  0  0  0  0  0  0
   16.9742   -0.3457   17.7313 N   0  0  0  0  0  0  0  0  0  0  0  0
   17.0631   -1.7650   18.1395 C   0  0  0  0  0  0  0  0  0  0  0  0
   16.0428   -2.5469   17.3089 C   0  0  0  0  0  0  0  0  0  0  0  0
   15.2054   -1.4578   16.6625 C   0  0  0  0  0  0  0  0  0  0  0  0
   14.5337   -1.9030   15.4433 N   0  0  0  0  0  0  0  0  0  0  0  0
   13.1518   -1.7477   15.3677 C   0  0  0  0  0  0  0  0  0  0  0  0
   12.3007   -2.7808   15.3240 C   0  0  0  0  0  0  0  0  0  0  0  0
   10.8686   -2.4365   15.2954 C   0  0  0  0  0  0  0  0  0  0  0  0
   10.3435   -1.2807   15.5532 N   0  0  0  0  0  0  0  0  0  0  0  0
   11.2301   -0.2518   15.6402 C   0  0  0  0  0  0  0  0  0  0  0  0
   10.9934    1.0125   15.9226 N   0  0  0  0  0  0  0  0  0  0  0  0
   12.1879    1.6629   15.7710 C   0  0  0  0  0  0  0  0  0  0  0  0
   13.1639    0.7856   15.3791 C   0  0  0  0  0  0  0  0  0  0  0  0
   12.5912   -0.4590   15.4439 N   0  0  0  0  0  0  0  0  0  0  0  0
   16.2466   -0.3691   16.4514 C   0  0  0  0  0  0  0  0  0  0  0  0
   15.3532   -0.0151   19.1025 H   0  0  0  0  0  0  0  0  0  0  0  0
   16.9453    0.4751   19.6476 H   0  0  0  0  0  0  0  0  0  0  0  0
   18.0721   -2.1379   17.9291 H   0  0  0  0  0  0  0  0  0  0  0  0
   16.8918   -1.9076   19.2131 H   0  0  0  0  0  0  0  0  0  0  0  0
   15.4326   -3.2146   17.9258 H   0  0  0  0  0  0  0  0  0  0  0  0
   16.5595   -3.1581   16.5585 H   0  0  0  0  0  0  0  0  0  0  0  0
   14.4588   -1.1235   17.3966 H   0  0  0  0  0  0  0  0  0  0  0  0
   14.8284   -2.8440   15.1856 H   0  0  0  0  0  0  0  0  0  0  0  0
   12.5814   -3.8155   15.3705 H   0  0  0  0  0  0  0  0  0  0  0  0
   10.2078   -3.2860   15.0753 H   0  0  0  0  0  0  0  0  0  0  0  0
   12.2674    2.7342   15.9078 H   0  0  0  0  0  0  0  0  0  0  0  0
   14.1845    0.9376   15.0776 H   0  0  0  0  0  0  0  0  0  0  0  0
   16.9400   -0.6476   15.6465 H   0  0  0  0  0  0  0  0  0  0  0  0
   15.8514    0.6080   16.1839 H   0  0  0  0  0  0  0  0  0  0  0  0
  1  2  1  0
  2  3  1  0
  2  4  1  0
  2  5  1  0
  5  6  1  0
  6  7  1  0
  7  8  1  0
  8  9  1  0
  9 10  1  0
 10 11  1  0
 11 12  2  0
 12 13  1  0
 13 14  2  0
 14 15  1  0
 15 16  2  0
 16 17  1  0
 17 18  2  0
 18 19  1  0
  9 20  1  0
 20  6  1  0
 19 11  1  0
 19 15  1  0
  5 21  1  0
  5 22  1  0
  7 23  1  0
  7 24  1  0
  8 25  1  0
  8 26  1  0
  9 27  1  0
 10 28  1  0
 12 29  1  0
 13 30  1  0
 17 31  1  0
 18 32  1  0
 20 33  1  0
 20 34  1  0
M  END
>  <Energy>  (922) 
154.33272383301431

>  <compound_id>  (922) 
8775

>  <target_id>  (922) 
1

>  <reference_id>  (922) 
106

>  <inspiration_ids>  (922) 
[124, 106]

>  <energy_score>  (922) 
-21.770006512327313

>  <distance_score>  (922) 
1.5907643130560882

>  <path>  (922) 
/opt/xchem-fragalysis-2/maxwin/BulkDock/SCRATCH/511014/C8775-P106/C8775-P106.minimised.mol

>  <scratch_subdir>  (922) 
/opt/xchem-fragalysis-2/maxwin/BulkDock/SCRATCH/511014/C8775-P106

>  <fragmenstein_runtime>  (922) 
1.4872090816497803

>  <fragmenstein_outcome>  (922) 
too moved

>  <fragmenstein_mode>  (922) 
expansion

>  <fragmenstein_error>  (922) 


$$$$
C8777-P124
     RDKit          3D

 38 41  0  0  0  0  0  0  0  0999 V2000
   12.5241   -1.1572   14.3162 C   0  0  0  0  0  0  0  0  0  0  0  0
   13.5930   -1.2039   15.1796 C   0  0  0  0  0  0  0  0  0  0  0  0
   13.5901   -2.1717   16.1847 C   0  0  0  0  0  0  0  0  0  0  0  0
   14.6835   -2.3050   17.2007 C   0  0  0  0  0  0  0  0  0  0  0  0
   15.2465   -1.1922   18.1360 C   0  0  0  0  0  0  0  0  0  0  0  0
   15.3821    0.2816   17.6962 C   0  0  0  0  0  0  0  0  0  0  0  0
   16.8836    0.5192   17.4886 C   0  0  0  0  0  0  0  0  0  0  0  0
   17.4236   -0.8456   17.3128 N   0  0  0  0  0  0  0  0  0  0  0  0
   17.5141   -1.4145   16.0068 C   0  0  0  0  0  0  0  0  0  0  0  0
   17.0415   -0.7982   14.9041 C   0  0  0  0  0  0  0  0  0  0  0  0
   17.1009   -1.5354   13.6284 C   0  0  0  0  0  0  0  0  0  0  0  0
   17.6165   -2.7047   13.4365 N   0  0  0  0  0  0  0  0  0  0  0  0
   18.1280   -3.3129   14.5426 C   0  0  0  0  0  0  0  0  0  0  0  0
   18.7117   -4.4935   14.6214 N   0  0  0  0  0  0  0  0  0  0  0  0
   19.0903   -4.6435   15.9249 C   0  0  0  0  0  0  0  0  0  0  0  0
   18.7376   -3.5445   16.6659 C   0  0  0  0  0  0  0  0  0  0  0  0
   18.0929   -2.6931   15.7989 N   0  0  0  0  0  0  0  0  0  0  0  0
   16.7149   -1.5837   18.3866 C   0  0  0  0  0  0  0  0  0  0  0  0
   12.5556   -3.1148   16.2060 C   0  0  0  0  0  0  0  0  0  0  0  0
   11.5453   -2.9986   15.2879 C   0  0  0  0  0  0  0  0  0  0  0  0
   11.4993   -2.0180   14.3795 N   0  0  0  0  0  0  0  0  0  0  0  0
   12.4483   -0.4011   13.5411 H   0  0  0  0  0  0  0  0  0  0  0  0
   14.3793   -0.4792   15.0594 H   0  0  0  0  0  0  0  0  0  0  0  0
   14.3806   -3.1006   17.9007 H   0  0  0  0  0  0  0  0  0  0  0  0
   15.4864   -2.7965   16.6429 H   0  0  0  0  0  0  0  0  0  0  0  0
   14.6796   -1.2322   19.0741 H   0  0  0  0  0  0  0  0  0  0  0  0
   14.8203    0.5243   16.7983 H   0  0  0  0  0  0  0  0  0  0  0  0
   15.0184    0.9535   18.4824 H   0  0  0  0  0  0  0  0  0  0  0  0
   17.1051    1.2103   16.6701 H   0  0  0  0  0  0  0  0  0  0  0  0
   17.3232    0.9614   18.3922 H   0  0  0  0  0  0  0  0  0  0  0  0
   16.5916    0.1804   14.8701 H   0  0  0  0  0  0  0  0  0  0  0  0
   16.6632   -1.0081   12.7644 H   0  0  0  0  0  0  0  0  0  0  0  0
   19.6154   -5.5294   16.2580 H   0  0  0  0  0  0  0  0  0  0  0  0
   18.9130   -3.2875   17.6986 H   0  0  0  0  0  0  0  0  0  0  0  0
   17.0513   -1.2137   19.3643 H   0  0  0  0  0  0  0  0  0  0  0  0
   16.8817   -2.6639   18.3866 H   0  0  0  0  0  0  0  0  0  0  0  0
   12.5353   -3.9328   16.9196 H   0  0  0  0  0  0  0  0  0  0  0  0
   10.7283   -3.7076   15.2445 H   0  0  0  0  0  0  0  0  0  0  0  0
  1  2  2  0
  2  3  1  0
  3  4  1  0
  4  5  1  0
  5  6  1  0
  6  7  1  0
  7  8  1  0
  8  9  1  0
  9 10  2  0
 10 11  1  0
 11 12  2  0
 12 13  1  0
 13 14  2  0
 14 15  1  0
 15 16  2  0
 16 17  1  0
  8 18  1  0
  3 19  2  0
 19 20  1  0
 20 21  2  0
 21  1  1  0
 18  5  1  0
 17  9  1  0
 17 13  1  0
  1 22  1  0
  2 23  1  0
  4 24  1  0
  4 25  1  0
  5 26  1  0
  6 27  1  0
  6 28  1  0
  7 29  1  0
  7 30  1  0
 10 31  1  0
 11 32  1  0
 15 33  1  0
 16 34  1  0
 18 35  1  0
 18 36  1  0
 19 37  1  0
 20 38  1  0
M  END
>  <Energy>  (923) 
101.37003460556593

>  <compound_id>  (923) 
8777

>  <target_id>  (923) 
1

>  <reference_id>  (923) 
124

>  <inspiration_ids>  (923) 
[124, 106]

>  <energy_score>  (923) 
-4.4340359888103364

>  <distance_score>  (923) 
2.18300267077399

>  <path>  (923) 
/opt/xchem-fragalysis-2/maxwin/BulkDock/SCRATCH/511014/C8777-P124/C8777-P124.minimised.mol

>  <scratch_subdir>  (923) 
/opt/xchem-fragalysis-2/maxwin/BulkDock/SCRATCH/511014/C8777-P124

>  <fragmenstein_runtime>  (923) 
23.68778967857361

>  <fragmenstein_outcome>  (923) 
too moved

>  <fragmenstein_mode>  (923) 
expansion

>  <fragmenstein_error>  (923) 


$$$$
C8777-P106
     RDKit          3D

 38 41  0  0  0  0  0  0  0  0999 V2000
   11.8722    0.3053   15.5102 C   0  0  0  0  0  0  0  0  0  0  0  0
   12.8898    0.0722   16.4114 C   0  0  0  0  0  0  0  0  0  0  0  0
   13.1708   -1.2407   16.7656 C   0  0  0  0  0  0  0  0  0  0  0  0
   14.2005   -1.6961   17.7653 C   0  0  0  0  0  0  0  0  0  0  0  0
   15.1697   -0.8589   18.6507 C   0  0  0  0  0  0  0  0  0  0  0  0
   15.4150    0.6341   18.4594 C   0  0  0  0  0  0  0  0  0  0  0  0
   16.4166    0.7288   17.3086 C   0  0  0  0  0  0  0  0  0  0  0  0
   16.9430   -0.6485   17.1338 N   0  0  0  0  0  0  0  0  0  0  0  0
   16.9040   -1.3133   15.8848 C   0  0  0  0  0  0  0  0  0  0  0  0
   16.1133   -0.9314   14.8623 C   0  0  0  0  0  0  0  0  0  0  0  0
   16.2140   -1.6961   13.6067 C   0  0  0  0  0  0  0  0  0  0  0  0
   17.0034   -2.6927   13.3729 N   0  0  0  0  0  0  0  0  0  0  0  0
   17.7726   -3.1023   14.4183 C   0  0  0  0  0  0  0  0  0  0  0  0
   18.6271   -4.1075   14.4562 N   0  0  0  0  0  0  0  0  0  0  0  0
   19.1736   -4.0927   15.7077 C   0  0  0  0  0  0  0  0  0  0  0  0
   18.6524   -3.0687   16.4566 C   0  0  0  0  0  0  0  0  0  0  0  0
   17.7351   -2.4370   15.6478 N   0  0  0  0  0  0  0  0  0  0  0  0
   16.5891   -1.3751   18.3673 C   0  0  0  0  0  0  0  0  0  0  0  0
   12.4405   -2.2695   16.1375 C   0  0  0  0  0  0  0  0  0  0  0  0
   11.4541   -1.9413   15.2407 C   0  0  0  0  0  0  0  0  0  0  0  0
   11.1402   -0.6685   14.9498 N   0  0  0  0  0  0  0  0  0  0  0  0
   11.6048    1.3149   15.2117 H   0  0  0  0  0  0  0  0  0  0  0  0
   13.4067    0.9293   16.8040 H   0  0  0  0  0  0  0  0  0  0  0  0
   14.7933   -2.4368   17.2093 H   0  0  0  0  0  0  0  0  0  0  0  0
   13.6667   -2.3419   18.4780 H   0  0  0  0  0  0  0  0  0  0  0  0
   14.9115   -1.0517   19.6997 H   0  0  0  0  0  0  0  0  0  0  0  0
   14.5253    1.2506   18.3514 H   0  0  0  0  0  0  0  0  0  0  0  0
   15.9074    1.0216   19.3636 H   0  0  0  0  0  0  0  0  0  0  0  0
   15.9415    1.1464   16.4188 H   0  0  0  0  0  0  0  0  0  0  0  0
   17.2422    1.3987   17.5742 H   0  0  0  0  0  0  0  0  0  0  0  0
   15.4147   -0.1120   14.8680 H   0  0  0  0  0  0  0  0  0  0  0  0
   15.5530   -1.3494   12.7948 H   0  0  0  0  0  0  0  0  0  0  0  0
   19.9263   -4.8132   15.9996 H   0  0  0  0  0  0  0  0  0  0  0  0
   18.8647   -2.7274   17.4572 H   0  0  0  0  0  0  0  0  0  0  0  0
   16.6374   -2.4656   18.2820 H   0  0  0  0  0  0  0  0  0  0  0  0
   17.2810   -1.0819   19.1676 H   0  0  0  0  0  0  0  0  0  0  0  0
   12.6384   -3.3163   16.3536 H   0  0  0  0  0  0  0  0  0  0  0  0
   10.8708   -2.6985   14.7251 H   0  0  0  0  0  0  0  0  0  0  0  0
  1  2  2  0
  2  3  1  0
  3  4  1  0
  4  5  1  0
  5  6  1  0
  6  7  1  0
  7  8  1  0
  8  9  1  0
  9 10  2  0
 10 11  1  0
 11 12  2  0
 12 13  1  0
 13 14  2  0
 14 15  1  0
 15 16  2  0
 16 17  1  0
  8 18  1  0
  3 19  2  0
 19 20  1  0
 20 21  2  0
 21  1  1  0
 18  5  1  0
 17  9  1  0
 17 13  1  0
  1 22  1  0
  2 23  1  0
  4 24  1  0
  4 25  1  0
  5 26  1  0
  6 27  1  0
  6 28  1  0
  7 29  1  0
  7 30  1  0
 10 31  1  0
 11 32  1  0
 15 33  1  0
 16 34  1  0
 18 35  1  0
 18 36  1  0
 19 37  1  0
 20 38  1  0
M  END
>  <Energy>  (924) 
97.850153725559167

>  <compound_id>  (924) 
8777

>  <target_id>  (924) 
1

>  <reference_id>  (924) 
106

>  <inspiration_ids>  (924) 
[124, 106]

>  <energy_score>  (924) 
-7.953916868817373

>  <distance_score>  (924) 
1.96810379651508

>  <path>  (924) 
/opt/xchem-fragalysis-2/maxwin/BulkDock/SCRATCH/511014/C8777-P106/C8777-P106.minimised.mol

>  <scratch_subdir>  (924) 
/opt/xchem-fragalysis-2/maxwin/BulkDock/SCRATCH/511014/C8777-P106

>  <fragmenstein_runtime>  (924) 
25.33244562149048

>  <fragmenstein_outcome>  (924) 
too moved

>  <fragmenstein_mode>  (924) 
expansion

>  <fragmenstein_error>  (924) 


$$$$
C8778-P124
     RDKit          3D

 38 41  0  0  0  0  0  0  0  0999 V2000
   11.7320   -2.7861   14.8884 C   0  0  0  0  0  0  0  0  0  0  0  0
   12.6045   -3.0776   15.9120 C   0  0  0  0  0  0  0  0  0  0  0  0
   13.6292   -2.1832   16.1841 C   0  0  0  0  0  0  0  0  0  0  0  0
   13.7430   -0.9852   15.4578 C   0  0  0  0  0  0  0  0  0  0  0  0
   14.6532    0.1714   15.8741 C   0  0  0  0  0  0  0  0  0  0  0  0
   15.7891   -0.2976   16.7285 C   0  0  0  0  0  0  0  0  0  0  0  0
   15.8376   -0.3836   18.2376 C   0  0  0  0  0  0  0  0  0  0  0  0
   17.2467   -1.0558   18.3943 C   0  0  0  0  0  0  0  0  0  0  0  0
   17.9291   -0.8719   17.0419 N   0  0  0  0  0  0  0  0  0  0  0  0
   18.0544   -2.0125   16.1474 C   0  0  0  0  0  0  0  0  0  0  0  0
   17.6486   -1.9734   14.8545 C   0  0  0  0  0  0  0  0  0  0  0  0
   17.6673   -3.2229   14.0826 C   0  0  0  0  0  0  0  0  0  0  0  0
   18.0866   -4.3730   14.4948 N   0  0  0  0  0  0  0  0  0  0  0  0
   18.5275   -4.4064   15.7792 C   0  0  0  0  0  0  0  0  0  0  0  0
   18.9854   -5.4488   16.4447 N   0  0  0  0  0  0  0  0  0  0  0  0
   19.3524   -4.9831   17.6738 C   0  0  0  0  0  0  0  0  0  0  0  0
   19.1032   -3.6388   17.7780 C   0  0  0  0  0  0  0  0  0  0  0  0
   18.5354   -3.2624   16.5870 N   0  0  0  0  0  0  0  0  0  0  0  0
   17.1702    0.2783   16.4760 C   0  0  0  0  0  0  0  0  0  0  0  0
   12.9292   -0.7344   14.4251 N   0  0  0  0  0  0  0  0  0  0  0  0
   11.9528   -1.6289   14.1707 C   0  0  0  0  0  0  0  0  0  0  0  0
   10.9151   -3.4479   14.6318 H   0  0  0  0  0  0  0  0  0  0  0  0
   12.4906   -3.9889   16.4933 H   0  0  0  0  0  0  0  0  0  0  0  0
   14.2638   -2.4251   17.0290 H   0  0  0  0  0  0  0  0  0  0  0  0
   14.1165    0.9981   16.3289 H   0  0  0  0  0  0  0  0  0  0  0  0
   15.0603    0.5736   14.9362 H   0  0  0  0  0  0  0  0  0  0  0  0
   15.8395   -1.3437   16.4262 H   0  0  0  0  0  0  0  0  0  0  0  0
   15.8144    0.6034   18.7124 H   0  0  0  0  0  0  0  0  0  0  0  0
   15.0505   -1.0000   18.6795 H   0  0  0  0  0  0  0  0  0  0  0  0
   17.8313   -0.5600   19.1755 H   0  0  0  0  0  0  0  0  0  0  0  0
   17.1135   -2.1092   18.6540 H   0  0  0  0  0  0  0  0  0  0  0  0
   17.2450   -1.1289   14.3204 H   0  0  0  0  0  0  0  0  0  0  0  0
   17.2956   -3.1328   13.0487 H   0  0  0  0  0  0  0  0  0  0  0  0
   19.7918   -5.6388   18.4144 H   0  0  0  0  0  0  0  0  0  0  0  0
   19.2976   -2.9323   18.5697 H   0  0  0  0  0  0  0  0  0  0  0  0
   17.4132    0.5106   15.4370 H   0  0  0  0  0  0  0  0  0  0  0  0
   17.3691    1.1935   17.0494 H   0  0  0  0  0  0  0  0  0  0  0  0
   11.3226   -1.3465   13.3441 H   0  0  0  0  0  0  0  0  0  0  0  0
  1  2  2  0
  2  3  1  0
  3  4  2  0
  4  5  1  0
  5  6  1  0
  6  7  1  0
  7  8  1  0
  8  9  1  0
  9 10  1  0
 10 11  2  0
 11 12  1  0
 12 13  2  0
 13 14  1  0
 14 15  2  0
 15 16  1  0
 16 17  2  0
 17 18  1  0
  9 19  1  0
  4 20  1  0
 20 21  2  0
 21  1  1  0
 19  6  1  0
 18 10  1  0
 18 14  1  0
  1 22  1  0
  2 23  1  0
  3 24  1  0
  5 25  1  0
  5 26  1  0
  6 27  1  0
  7 28  1  0
  7 29  1  0
  8 30  1  0
  8 31  1  0
 11 32  1  0
 12 33  1  0
 16 34  1  0
 17 35  1  0
 19 36  1  0
 19 37  1  0
 21 38  1  0
M  END
>  <Energy>  (925) 
114.88200529305132

>  <compound_id>  (925) 
8778

>  <target_id>  (925) 
1

>  <reference_id>  (925) 
124

>  <inspiration_ids>  (925) 
[124, 106]

>  <energy_score>  (925) 
-2.6508705714892074

>  <distance_score>  (925) 
2.5913687525635547

>  <path>  (925) 
/opt/xchem-fragalysis-2/maxwin/BulkDock/SCRATCH/511014/C8778-P124/C8778-P124.minimised.mol

>  <scratch_subdir>  (925) 
/opt/xchem-fragalysis-2/maxwin/BulkDock/SCRATCH/511014/C8778-P124

>  <fragmenstein_runtime>  (925) 
20.067999362945557

>  <fragmenstein_outcome>  (925) 
too moved

>  <fragmenstein_mode>  (925) 
expansion

>  <fragmenstein_error>  (925) 


$$$$
C8778-P106
     RDKit          3D

 38 41  0  0  0  0  0  0  0  0999 V2000
   12.0970   -2.2760   15.1494 C   0  0  0  0  0  0  0  0  0  0  0  0
   12.8665   -2.7798   16.1805 C   0  0  0  0  0  0  0  0  0  0  0  0
   13.4934   -1.9014   17.0563 C   0  0  0  0  0  0  0  0  0  0  0  0
   13.3549   -0.5301   16.8853 C   0  0  0  0  0  0  0  0  0  0  0  0
   13.8617    0.4196   17.9523 C   0  0  0  0  0  0  0  0  0  0  0  0
   15.3413    0.7654   18.1573 C   0  0  0  0  0  0  0  0  0  0  0  0
   15.9029    1.7128   17.0983 C   0  0  0  0  0  0  0  0  0  0  0  0
   17.2666    1.1272   16.7595 C   0  0  0  0  0  0  0  0  0  0  0  0
   17.1139   -0.3212   17.0072 N   0  0  0  0  0  0  0  0  0  0  0  0
   16.8278   -1.1939   15.9455 C   0  0  0  0  0  0  0  0  0  0  0  0
   16.0699   -0.8529   14.8876 C   0  0  0  0  0  0  0  0  0  0  0  0
   15.9297   -1.8608   13.8297 C   0  0  0  0  0  0  0  0  0  0  0  0
   16.4925   -3.0230   13.8035 N   0  0  0  0  0  0  0  0  0  0  0  0
   17.2300   -3.3724   14.8907 C   0  0  0  0  0  0  0  0  0  0  0  0
   17.8615   -4.5060   15.1339 N   0  0  0  0  0  0  0  0  0  0  0  0
   18.4526   -4.3550   16.3575 C   0  0  0  0  0  0  0  0  0  0  0  0
   18.1812   -3.1168   16.8806 C   0  0  0  0  0  0  0  0  0  0  0  0
   17.3917   -2.4849   15.9494 N   0  0  0  0  0  0  0  0  0  0  0  0
   16.3114   -0.4162   18.2323 C   0  0  0  0  0  0  0  0  0  0  0  0
   12.6019   -0.0252   15.8770 N   0  0  0  0  0  0  0  0  0  0  0  0
   11.9960   -0.9041   15.0369 C   0  0  0  0  0  0  0  0  0  0  0  0
   11.5866   -2.9278   14.4481 H   0  0  0  0  0  0  0  0  0  0  0  0
   12.9650   -3.8539   16.3178 H   0  0  0  0  0  0  0  0  0  0  0  0
   14.0334   -2.3196   17.8986 H   0  0  0  0  0  0  0  0  0  0  0  0
   13.3120    1.3643   17.8434 H   0  0  0  0  0  0  0  0  0  0  0  0
   13.5492    0.0089   18.9147 H   0  0  0  0  0  0  0  0  0  0  0  0
   15.3934    1.2887   19.1233 H   0  0  0  0  0  0  0  0  0  0  0  0
   15.2625    1.7489   16.2113 H   0  0  0  0  0  0  0  0  0  0  0  0
   15.9929    2.7394   17.4687 H   0  0  0  0  0  0  0  0  0  0  0  0
   17.5844    1.3634   15.7382 H   0  0  0  0  0  0  0  0  0  0  0  0
   18.0300    1.5214   17.4413 H   0  0  0  0  0  0  0  0  0  0  0  0
   15.5753    0.0940   14.7440 H   0  0  0  0  0  0  0  0  0  0  0  0
   15.3000   -1.5610   12.9757 H   0  0  0  0  0  0  0  0  0  0  0  0
   19.0481   -5.1459   16.7944 H   0  0  0  0  0  0  0  0  0  0  0  0
   18.4752   -2.6299   17.7978 H   0  0  0  0  0  0  0  0  0  0  0  0
   16.9875   -0.2759   19.0859 H   0  0  0  0  0  0  0  0  0  0  0  0
   15.8464   -1.3915   18.3767 H   0  0  0  0  0  0  0  0  0  0  0  0
   11.4009   -0.4569   14.2437 H   0  0  0  0  0  0  0  0  0  0  0  0
  1  2  2  0
  2  3  1  0
  3  4  2  0
  4  5  1  0
  5  6  1  0
  6  7  1  0
  7  8  1  0
  8  9  1  0
  9 10  1  0
 10 11  2  0
 11 12  1  0
 12 13  2  0
 13 14  1  0
 14 15  2  0
 15 16  1  0
 16 17  2  0
 17 18  1  0
  9 19  1  0
  4 20  1  0
 20 21  2  0
 21  1  1  0
 19  6  1  0
 18 10  1  0
 18 14  1  0
  1 22  1  0
  2 23  1  0
  3 24  1  0
  5 25  1  0
  5 26  1  0
  6 27  1  0
  7 28  1  0
  7 29  1  0
  8 30  1  0
  8 31  1  0
 11 32  1  0
 12 33  1  0
 16 34  1  0
 17 35  1  0
 19 36  1  0
 19 37  1  0
 21 38  1  0
M  END
>  <Energy>  (926) 
79.444051643216582

>  <compound_id>  (926) 
8778

>  <target_id>  (926) 
1

>  <reference_id>  (926) 
106

>  <inspiration_ids>  (926) 
[124, 106]

>  <energy_score>  (926) 
-38.08882422132497

>  <distance_score>  (926) 
1.950689835334633

>  <path>  (926) 
/opt/xchem-fragalysis-2/maxwin/BulkDock/SCRATCH/511014/C8778-P106/C8778-P106.minimised.mol

>  <scratch_subdir>  (926) 
/opt/xchem-fragalysis-2/maxwin/BulkDock/SCRATCH/511014/C8778-P106

>  <fragmenstein_runtime>  (926) 
20.81044602394104

>  <fragmenstein_outcome>  (926) 
too moved

>  <fragmenstein_mode>  (926) 
expansion

>  <fragmenstein_error>  (926) 


$$$$
C8779-P124
     RDKit          3D

 39 42  0  0  0  0  0  0  0  0999 V2000
   12.3065   -1.2916   14.0112 C   0  0  0  0  0  0  0  0  0  0  0  0
   12.4252   -2.4014   14.8229 C   0  0  0  0  0  0  0  0  0  0  0  0
   13.3309   -2.4778   15.8039 N   0  0  0  0  0  0  0  0  0  0  0  0
   14.0953   -1.3731   15.9788 C   0  0  0  0  0  0  0  0  0  0  0  0
   14.0261   -0.1808   15.2809 C   0  0  0  0  0  0  0  0  0  0  0  0
   14.7734    1.0339   15.7826 C   0  0  0  0  0  0  0  0  0  0  0  0
   14.9905    0.9232   17.2007 O   0  0  0  0  0  0  0  0  0  0  0  0
   16.3128    1.1005   17.7009 C   0  0  0  0  0  0  0  0  0  0  0  0
   16.3195    0.6286   19.1525 C   0  0  0  0  0  0  0  0  0  0  0  0
   16.4719   -0.8915   19.0298 C   0  0  0  0  0  0  0  0  0  0  0  0
   17.2693   -1.1143   17.8044 N   0  0  0  0  0  0  0  0  0  0  0  0
   17.2391   -2.2934   17.0308 C   0  0  0  0  0  0  0  0  0  0  0  0
   16.2673   -3.2166   17.1045 C   0  0  0  0  0  0  0  0  0  0  0  0
   16.1802   -4.1313   15.9512 C   0  0  0  0  0  0  0  0  0  0  0  0
   17.0678   -4.3317   15.0346 N   0  0  0  0  0  0  0  0  0  0  0  0
   18.1632   -3.5383   15.1029 C   0  0  0  0  0  0  0  0  0  0  0  0
   19.2365   -3.5506   14.3364 N   0  0  0  0  0  0  0  0  0  0  0  0
   20.0490   -2.5649   14.8167 C   0  0  0  0  0  0  0  0  0  0  0  0
   19.4646   -1.9293   15.8824 C   0  0  0  0  0  0  0  0  0  0  0  0
   18.2425   -2.5276   16.0591 N   0  0  0  0  0  0  0  0  0  0  0  0
   17.3910    0.1889   17.1012 C   0  0  0  0  0  0  0  0  0  0  0  0
   13.1364   -0.1822   14.2164 C   0  0  0  0  0  0  0  0  0  0  0  0
   11.5383   -1.2625   13.2548 H   0  0  0  0  0  0  0  0  0  0  0  0
   11.7762   -3.2613   14.6941 H   0  0  0  0  0  0  0  0  0  0  0  0
   14.7011   -1.4044   16.8676 H   0  0  0  0  0  0  0  0  0  0  0  0
   15.7022    1.1685   15.2220 H   0  0  0  0  0  0  0  0  0  0  0  0
   14.1573    1.9266   15.6296 H   0  0  0  0  0  0  0  0  0  0  0  0
   16.5754    2.1591   17.6097 H   0  0  0  0  0  0  0  0  0  0  0  0
   15.4118    0.8944   19.7029 H   0  0  0  0  0  0  0  0  0  0  0  0
   17.1871    1.0435   19.6796 H   0  0  0  0  0  0  0  0  0  0  0  0
   16.9828   -1.3104   19.9026 H   0  0  0  0  0  0  0  0  0  0  0  0
   15.4781   -1.3446   18.9641 H   0  0  0  0  0  0  0  0  0  0  0  0
   15.4483   -3.2295   17.8068 H   0  0  0  0  0  0  0  0  0  0  0  0
   15.2329   -4.6801   15.8846 H   0  0  0  0  0  0  0  0  0  0  0  0
   21.0198   -2.3740   14.3784 H   0  0  0  0  0  0  0  0  0  0  0  0
   19.8170   -1.1433   16.5312 H   0  0  0  0  0  0  0  0  0  0  0  0
   17.2962    0.0785   16.0184 H   0  0  0  0  0  0  0  0  0  0  0  0
   18.3825    0.6015   17.3217 H   0  0  0  0  0  0  0  0  0  0  0  0
   12.9915    0.7087   13.6106 H   0  0  0  0  0  0  0  0  0  0  0  0
  1  2  2  0
  2  3  1  0
  3  4  2  0
  4  5  1  0
  5  6  1  0
  6  7  1  0
  7  8  1  0
  8  9  1  0
  9 10  1  0
 10 11  1  0
 11 12  1  0
 12 13  2  0
 13 14  1  0
 14 15  2  0
 15 16  1  0
 16 17  2  0
 17 18  1  0
 18 19  2  0
 19 20  1  0
 11 21  1  0
  5 22  2  0
 22  1  1  0
 21  8  1  0
 20 12  1  0
 20 16  1  0
  1 23  1  0
  2 24  1  0
  4 25  1  0
  6 26  1  0
  6 27  1  0
  8 28  1  0
  9 29  1  0
  9 30  1  0
 10 31  1  0
 10 32  1  0
 13 33  1  0
 14 34  1  0
 18 35  1  0
 19 36  1  0
 21 37  1  0
 21 38  1  0
 22 39  1  0
M  END
>  <Energy>  (927) 
108.82636070926138

>  <compound_id>  (927) 
8779

>  <target_id>  (927) 
1

>  <reference_id>  (927) 
124

>  <inspiration_ids>  (927) 
[124, 106]

>  <energy_score>  (927) 
-21.065054695980564

>  <distance_score>  (927) 
2.221720371854811

>  <path>  (927) 
/opt/xchem-fragalysis-2/maxwin/BulkDock/SCRATCH/511014/C8779-P124/C8779-P124.minimised.mol

>  <scratch_subdir>  (927) 
/opt/xchem-fragalysis-2/maxwin/BulkDock/SCRATCH/511014/C8779-P124

>  <fragmenstein_runtime>  (927) 
19.148041486740112

>  <fragmenstein_outcome>  (927) 
too moved

>  <fragmenstein_mode>  (927) 
expansion

>  <fragmenstein_error>  (927) 


$$$$
C8779-P106
     RDKit          3D

 39 42  0  0  0  0  0  0  0  0999 V2000
   11.9436   -0.6247   14.4462 C   0  0  0  0  0  0  0  0  0  0  0  0
   11.9825   -1.9093   14.9586 C   0  0  0  0  0  0  0  0  0  0  0  0
   12.5356   -2.1977   16.1448 N   0  0  0  0  0  0  0  0  0  0  0  0
   13.0703   -1.1587   16.8195 C   0  0  0  0  0  0  0  0  0  0  0  0
   13.0932    0.1653   16.4158 C   0  0  0  0  0  0  0  0  0  0  0  0
   13.6049    1.2212   17.3607 C   0  0  0  0  0  0  0  0  0  0  0  0
   14.8433    1.8360   17.0547 O   0  0  0  0  0  0  0  0  0  0  0  0
   16.0662    1.2696   17.5135 C   0  0  0  0  0  0  0  0  0  0  0  0
   16.1503    0.7413   18.9416 C   0  0  0  0  0  0  0  0  0  0  0  0
   16.1734   -0.7756   18.8077 C   0  0  0  0  0  0  0  0  0  0  0  0
   16.7158   -1.0514   17.4747 N   0  0  0  0  0  0  0  0  0  0  0  0
   16.6845   -2.3078   16.8537 C   0  0  0  0  0  0  0  0  0  0  0  0
   15.6824   -3.1851   16.9986 C   0  0  0  0  0  0  0  0  0  0  0  0
   15.7452   -4.3953   16.1654 C   0  0  0  0  0  0  0  0  0  0  0  0
   16.7157   -4.7676   15.3944 N   0  0  0  0  0  0  0  0  0  0  0  0
   17.7533   -3.8972   15.2935 C   0  0  0  0  0  0  0  0  0  0  0  0
   18.8658   -4.0249   14.5948 N   0  0  0  0  0  0  0  0  0  0  0  0
   19.6100   -2.9144   14.8712 C   0  0  0  0  0  0  0  0  0  0  0  0
   18.9517   -2.0935   15.7506 C   0  0  0  0  0  0  0  0  0  0  0  0
   17.7442   -2.6960   16.0019 N   0  0  0  0  0  0  0  0  0  0  0  0
   16.5853    0.1446   16.6216 C   0  0  0  0  0  0  0  0  0  0  0  0
   12.5086    0.4236   15.1812 C   0  0  0  0  0  0  0  0  0  0  0  0
   11.4706   -0.4379   13.4880 H   0  0  0  0  0  0  0  0  0  0  0  0
   11.5516   -2.7443   14.4127 H   0  0  0  0  0  0  0  0  0  0  0  0
   13.4770   -1.4410   17.7788 H   0  0  0  0  0  0  0  0  0  0  0  0
   12.8623    2.0290   17.3592 H   0  0  0  0  0  0  0  0  0  0  0  0
   13.6045    0.8500   18.3888 H   0  0  0  0  0  0  0  0  0  0  0  0
   16.7730    2.1049   17.4317 H   0  0  0  0  0  0  0  0  0  0  0  0
   15.3615    1.0962   19.6094 H   0  0  0  0  0  0  0  0  0  0  0  0
   17.1073    1.0568   19.3776 H   0  0  0  0  0  0  0  0  0  0  0  0
   16.8061   -1.2258   19.5804 H   0  0  0  0  0  0  0  0  0  0  0  0
   15.1665   -1.1740   18.9360 H   0  0  0  0  0  0  0  0  0  0  0  0
   14.8245   -3.0807   17.6370 H   0  0  0  0  0  0  0  0  0  0  0  0
   14.8569   -5.0386   16.2437 H   0  0  0  0  0  0  0  0  0  0  0  0
   20.5897   -2.7723   14.4350 H   0  0  0  0  0  0  0  0  0  0  0  0
   19.2352   -1.1645   16.2189 H   0  0  0  0  0  0  0  0  0  0  0  0
   15.9232   -0.0368   15.7677 H   0  0  0  0  0  0  0  0  0  0  0  0
   17.5706    0.4172   16.2294 H   0  0  0  0  0  0  0  0  0  0  0  0
   12.4714    1.4375   14.7914 H   0  0  0  0  0  0  0  0  0  0  0  0
  1  2  2  0
  2  3  1  0
  3  4  2  0
  4  5  1  0
  5  6  1  0
  6  7  1  0
  7  8  1  0
  8  9  1  0
  9 10  1  0
 10 11  1  0
 11 12  1  0
 12 13  2  0
 13 14  1  0
 14 15  2  0
 15 16  1  0
 16 17  2  0
 17 18  1  0
 18 19  2  0
 19 20  1  0
 11 21  1  0
  5 22  2  0
 22  1  1  0
 21  8  1  0
 20 12  1  0
 20 16  1  0
  1 23  1  0
  2 24  1  0
  4 25  1  0
  6 26  1  0
  6 27  1  0
  8 28  1  0
  9 29  1  0
  9 30  1  0
 10 31  1  0
 10 32  1  0
 13 33  1  0
 14 34  1  0
 18 35  1  0
 19 36  1  0
 21 37  1  0
 21 38  1  0
 22 39  1  0
M  END
>  <Energy>  (928) 
108.37459786688665

>  <compound_id>  (928) 
8779

>  <target_id>  (928) 
1

>  <reference_id>  (928) 
106

>  <inspiration_ids>  (928) 
[124, 106]

>  <energy_score>  (928) 
-21.516817538356236

>  <distance_score>  (928) 
1.9548441485476957

>  <path>  (928) 
/opt/xchem-fragalysis-2/maxwin/BulkDock/SCRATCH/511014/C8779-P106/C8779-P106.minimised.mol

>  <scratch_subdir>  (928) 
/opt/xchem-fragalysis-2/maxwin/BulkDock/SCRATCH/511014/C8779-P106

>  <fragmenstein_runtime>  (928) 
19.93373394012451

>  <fragmenstein_outcome>  (928) 
too moved

>  <fragmenstein_mode>  (928) 
expansion

>  <fragmenstein_error>  (928) 


$$$$
C8780-P124
     RDKit          3D

 37 39  0  0  0  0  0  0  0  0999 V2000
   18.0525   -4.2831   14.3943 C   0  0  0  0  0  0  0  0  0  0  0  0
   18.5682   -3.1112   15.6101 S   0  0  0  0  0  0  0  0  0  0  0  0
   18.6434   -3.7926   16.8808 O   0  0  0  0  0  0  0  0  0  0  0  0
   19.6804   -2.3571   15.0799 O   0  0  0  0  0  0  0  0  0  0  0  0
   17.2968   -2.0415   15.7447 N   0  0  0  0  0  0  0  0  0  0  0  0
   16.5960   -1.5724   14.5375 C   0  0  0  0  0  0  0  0  0  0  0  0
   15.3347   -2.4128   14.3046 C   0  0  0  0  0  0  0  0  0  0  0  0
   14.2216   -1.6239   13.5908 C   0  0  0  0  0  0  0  0  0  0  0  0
   13.2339   -1.2756   14.7032 C   0  0  0  0  0  0  0  0  0  0  0  0
   13.9631   -1.6130   15.9385 N   0  0  0  0  0  0  0  0  0  0  0  0
   14.6407   -0.7195   16.8061 C   0  0  0  0  0  0  0  0  0  0  0  0
   15.0282   -1.1816   18.0162 C   0  0  0  0  0  0  0  0  0  0  0  0
   15.5477   -0.1963   18.9736 C   0  0  0  0  0  0  0  0  0  0  0  0
   15.6542    1.0758   18.7787 N   0  0  0  0  0  0  0  0  0  0  0  0
   15.2852    1.5361   17.5536 C   0  0  0  0  0  0  0  0  0  0  0  0
   15.2596    2.7878   17.1468 N   0  0  0  0  0  0  0  0  0  0  0  0
   14.8873    2.7530   15.8397 C   0  0  0  0  0  0  0  0  0  0  0  0
   14.6519    1.4629   15.4386 C   0  0  0  0  0  0  0  0  0  0  0  0
   14.8297    0.6695   16.5508 N   0  0  0  0  0  0  0  0  0  0  0  0
   14.6628   -2.8474   15.6143 C   0  0  0  0  0  0  0  0  0  0  0  0
   18.8336   -5.0441   14.3187 H   0  0  0  0  0  0  0  0  0  0  0  0
   17.1319   -4.7551   14.7381 H   0  0  0  0  0  0  0  0  0  0  0  0
   17.9478   -3.7904   13.4285 H   0  0  0  0  0  0  0  0  0  0  0  0
   17.6140   -1.2587   16.3252 H   0  0  0  0  0  0  0  0  0  0  0  0
   17.2508   -1.6105   13.6595 H   0  0  0  0  0  0  0  0  0  0  0  0
   16.3780   -0.5104   14.6580 H   0  0  0  0  0  0  0  0  0  0  0  0
   15.6513   -3.2533   13.6963 H   0  0  0  0  0  0  0  0  0  0  0  0
   13.7251   -2.2359   12.8317 H   0  0  0  0  0  0  0  0  0  0  0  0
   14.6061   -0.7350   13.0815 H   0  0  0  0  0  0  0  0  0  0  0  0
   12.8588   -0.2584   14.6437 H   0  0  0  0  0  0  0  0  0  0  0  0
   12.3524   -1.9263   14.6308 H   0  0  0  0  0  0  0  0  0  0  0  0
   14.8945   -2.1980   18.3588 H   0  0  0  0  0  0  0  0  0  0  0  0
   15.8481   -0.6077   19.9521 H   0  0  0  0  0  0  0  0  0  0  0  0
   14.8163    3.6569   15.2487 H   0  0  0  0  0  0  0  0  0  0  0  0
   14.3743    1.0872   14.4721 H   0  0  0  0  0  0  0  0  0  0  0  0
   15.3491   -3.2220   16.3784 H   0  0  0  0  0  0  0  0  0  0  0  0
   13.9027   -3.6241   15.5189 H   0  0  0  0  0  0  0  0  0  0  0  0
  1  2  1  0
  2  3  2  0
  2  4  2  0
  2  5  1  0
  5  6  1  0
  6  7  1  0
  7  8  1  0
  8  9  1  0
  9 10  1  0
 10 11  1  0
 11 12  2  0
 12 13  1  0
 13 14  2  0
 14 15  1  0
 15 16  2  0
 16 17  1  0
 17 18  2  0
 18 19  1  0
 10 20  1  0
 20  7  1  0
 19 11  1  0
 19 15  1  0
  1 21  1  0
  1 22  1  0
  1 23  1  0
  5 24  1  0
  6 25  1  0
  6 26  1  0
  7 27  1  0
  8 28  1  0
  8 29  1  0
  9 30  1  0
  9 31  1  0
 12 32  1  0
 13 33  1  0
 17 34  1  0
 18 35  1  0
 20 36  1  0
 20 37  1  0
M  END
>  <Energy>  (929) 
14.766902623534847

>  <compound_id>  (929) 
8780

>  <target_id>  (929) 
1

>  <reference_id>  (929) 
124

>  <inspiration_ids>  (929) 
[124, 106]

>  <energy_score>  (929) 
-18.435173479209098

>  <distance_score>  (929) 
2.097272701008295

>  <path>  (929) 
/opt/xchem-fragalysis-2/maxwin/BulkDock/SCRATCH/511014/C8780-P124/C8780-P124.minimised.mol

>  <scratch_subdir>  (929) 
/opt/xchem-fragalysis-2/maxwin/BulkDock/SCRATCH/511014/C8780-P124

>  <fragmenstein_runtime>  (929) 
15.466728448867798

>  <fragmenstein_outcome>  (929) 
too moved

>  <fragmenstein_mode>  (929) 
expansion

>  <fragmenstein_error>  (929) 


$$$$
C8780-P106
     RDKit          3D

 37 39  0  0  0  0  0  0  0  0999 V2000
   18.6921   -3.4296   14.1118 C   0  0  0  0  0  0  0  0  0  0  0  0
   17.8865   -3.2252   15.6786 S   0  0  0  0  0  0  0  0  0  0  0  0
   17.1922   -4.4438   16.0204 O   0  0  0  0  0  0  0  0  0  0  0  0
   18.8128   -2.5946   16.5907 O   0  0  0  0  0  0  0  0  0  0  0  0
   16.7489   -2.0648   15.3101 N   0  0  0  0  0  0  0  0  0  0  0  0
   15.7449   -2.3293   14.2671 C   0  0  0  0  0  0  0  0  0  0  0  0
   14.4338   -1.8489   14.8077 C   0  0  0  0  0  0  0  0  0  0  0  0
   13.1542   -1.7215   13.9773 C   0  0  0  0  0  0  0  0  0  0  0  0
   12.0398   -1.7798   15.0589 C   0  0  0  0  0  0  0  0  0  0  0  0
   12.7739   -1.7898   16.3578 N   0  0  0  0  0  0  0  0  0  0  0  0
   13.2392   -0.6226   17.0635 C   0  0  0  0  0  0  0  0  0  0  0  0
   14.0508   -0.8200   18.1323 C   0  0  0  0  0  0  0  0  0  0  0  0
   14.7219    0.3429   18.7219 C   0  0  0  0  0  0  0  0  0  0  0  0
   14.6374    1.5585   18.3017 N   0  0  0  0  0  0  0  0  0  0  0  0
   13.8211    1.7713   17.2348 C   0  0  0  0  0  0  0  0  0  0  0  0
   13.6145    2.9171   16.6214 N   0  0  0  0  0  0  0  0  0  0  0  0
   12.7088    2.6626   15.6425 C   0  0  0  0  0  0  0  0  0  0  0  0
   12.3724    1.3325   15.6231 C   0  0  0  0  0  0  0  0  0  0  0  0
   13.0975    0.7284   16.6260 N   0  0  0  0  0  0  0  0  0  0  0  0
   13.9302   -2.6607   16.0043 C   0  0  0  0  0  0  0  0  0  0  0  0
   17.9938   -3.8363   13.3823 H   0  0  0  0  0  0  0  0  0  0  0  0
   19.0835   -2.4643   13.7847 H   0  0  0  0  0  0  0  0  0  0  0  0
   19.5190   -4.1297   14.2520 H   0  0  0  0  0  0  0  0  0  0  0  0
   17.0838   -1.1049   15.4152 H   0  0  0  0  0  0  0  0  0  0  0  0
   16.0203   -1.7781   13.3622 H   0  0  0  0  0  0  0  0  0  0  0  0
   15.7309   -3.3846   14.0258 H   0  0  0  0  0  0  0  0  0  0  0  0
   14.6663   -0.8181   15.1118 H   0  0  0  0  0  0  0  0  0  0  0  0
   13.1300   -0.7731   13.4311 H   0  0  0  0  0  0  0  0  0  0  0  0
   13.0313   -2.5283   13.2509 H   0  0  0  0  0  0  0  0  0  0  0  0
   11.2587   -1.0284   14.9785 H   0  0  0  0  0  0  0  0  0  0  0  0
   11.5125   -2.7396   14.9652 H   0  0  0  0  0  0  0  0  0  0  0  0
   14.2706   -1.7840   18.5723 H   0  0  0  0  0  0  0  0  0  0  0  0
   15.3624    0.1247   19.5928 H   0  0  0  0  0  0  0  0  0  0  0  0
   12.3405    3.4513   14.9997 H   0  0  0  0  0  0  0  0  0  0  0  0
   11.6798    0.8232   14.9836 H   0  0  0  0  0  0  0  0  0  0  0  0
   13.5736   -3.6642   15.7562 H   0  0  0  0  0  0  0  0  0  0  0  0
   14.6790   -2.7897   16.7892 H   0  0  0  0  0  0  0  0  0  0  0  0
  1  2  1  0
  2  3  2  0
  2  4  2  0
  2  5  1  0
  5  6  1  0
  6  7  1  0
  7  8  1  0
  8  9  1  0
  9 10  1  0
 10 11  1  0
 11 12  2  0
 12 13  1  0
 13 14  2  0
 14 15  1  0
 15 16  2  0
 16 17  1  0
 17 18  2  0
 18 19  1  0
 10 20  1  0
 20  7  1  0
 19 11  1  0
 19 15  1  0
  1 21  1  0
  1 22  1  0
  1 23  1  0
  5 24  1  0
  6 25  1  0
  6 26  1  0
  7 27  1  0
  8 28  1  0
  8 29  1  0
  9 30  1  0
  9 31  1  0
 12 32  1  0
 13 33  1  0
 17 34  1  0
 18 35  1  0
 20 36  1  0
 20 37  1  0
M  END
>  <Energy>  (930) 
17.285330771816181

>  <compound_id>  (930) 
8780

>  <target_id>  (930) 
1

>  <reference_id>  (930) 
106

>  <inspiration_ids>  (930) 
[124, 106]

>  <energy_score>  (930) 
-15.916745330928322

>  <distance_score>  (930) 
1.5082183916751593

>  <path>  (930) 
/opt/xchem-fragalysis-2/maxwin/BulkDock/SCRATCH/511014/C8780-P106/C8780-P106.minimised.mol

>  <scratch_subdir>  (930) 
/opt/xchem-fragalysis-2/maxwin/BulkDock/SCRATCH/511014/C8780-P106

>  <fragmenstein_runtime>  (930) 
12.93961763381958

>  <fragmenstein_outcome>  (930) 
too moved

>  <fragmenstein_mode>  (930) 
expansion

>  <fragmenstein_error>  (930) 


$$$$
C8782-P124
     RDKit          3D

 39 42  0  0  0  0  0  0  0  0999 V2000
   18.4304   -2.2112   14.9335 C   0  0  0  0  0  0  0  0  0  0  0  0
   17.0438   -1.7369   15.3585 C   0  0  0  0  0  0  0  0  0  0  0  0
   15.9413   -2.7422   15.0075 C   0  0  0  0  0  0  0  0  0  0  0  0
   14.5322   -2.1253   14.9903 C   0  0  0  0  0  0  0  0  0  0  0  0
   13.4213   -2.8027   15.5337 C   0  0  0  0  0  0  0  0  0  0  0  0
   12.1246   -2.3970   15.2552 C   0  0  0  0  0  0  0  0  0  0  0  0
   11.9202   -1.2752   14.4720 C   0  0  0  0  0  0  0  0  0  0  0  0
   12.9944   -0.5033   14.0468 C   0  0  0  0  0  0  0  0  0  0  0  0
   14.2923   -0.9284   14.2968 C   0  0  0  0  0  0  0  0  0  0  0  0
   16.1639   -3.7537   16.1113 C   0  0  0  0  0  0  0  0  0  0  0  0
   16.3172   -2.8659   17.3270 C   0  0  0  0  0  0  0  0  0  0  0  0
   16.9510   -1.6215   16.8453 N   0  0  0  0  0  0  0  0  0  0  0  0
   16.7146   -0.3558   17.4448 C   0  0  0  0  0  0  0  0  0  0  0  0
   17.1044    0.7895   16.8418 C   0  0  0  0  0  0  0  0  0  0  0  0
   16.6711    2.0720   17.4366 C   0  0  0  0  0  0  0  0  0  0  0  0
   15.9619    2.2194   18.5045 N   0  0  0  0  0  0  0  0  0  0  0  0
   15.6454    1.0697   19.1609 C   0  0  0  0  0  0  0  0  0  0  0  0
   14.9766    0.9652   20.2902 N   0  0  0  0  0  0  0  0  0  0  0  0
   14.9953   -0.3533   20.6232 C   0  0  0  0  0  0  0  0  0  0  0  0
   15.6544   -1.0819   19.6674 C   0  0  0  0  0  0  0  0  0  0  0  0
   16.0323   -0.1933   18.6829 N   0  0  0  0  0  0  0  0  0  0  0  0
   18.4570   -2.4314   13.8613 H   0  0  0  0  0  0  0  0  0  0  0  0
   19.1683   -1.4251   15.1309 H   0  0  0  0  0  0  0  0  0  0  0  0
   18.7725   -3.0966   15.4772 H   0  0  0  0  0  0  0  0  0  0  0  0
   16.8744   -0.7872   14.8491 H   0  0  0  0  0  0  0  0  0  0  0  0
   16.1137   -3.1861   14.0222 H   0  0  0  0  0  0  0  0  0  0  0  0
   13.5195   -3.7190   16.1070 H   0  0  0  0  0  0  0  0  0  0  0  0
   11.2787   -2.9829   15.6038 H   0  0  0  0  0  0  0  0  0  0  0  0
   10.9104   -0.9704   14.2132 H   0  0  0  0  0  0  0  0  0  0  0  0
   12.8108    0.4022   13.4744 H   0  0  0  0  0  0  0  0  0  0  0  0
   15.0983   -0.3536   13.8523 H   0  0  0  0  0  0  0  0  0  0  0  0
   15.3748   -4.4904   16.2310 H   0  0  0  0  0  0  0  0  0  0  0  0
   17.0787   -4.3331   15.9418 H   0  0  0  0  0  0  0  0  0  0  0  0
   16.9350   -3.3514   18.0887 H   0  0  0  0  0  0  0  0  0  0  0  0
   15.3134   -2.6833   17.7211 H   0  0  0  0  0  0  0  0  0  0  0  0
   17.6675    0.8481   15.9234 H   0  0  0  0  0  0  0  0  0  0  0  0
   16.9769    2.9713   16.8765 H   0  0  0  0  0  0  0  0  0  0  0  0
   14.5458   -0.7127   21.5413 H   0  0  0  0  0  0  0  0  0  0  0  0
   15.9086   -2.1260   19.6634 H   0  0  0  0  0  0  0  0  0  0  0  0
  1  2  1  0
  2  3  1  0
  3  4  1  0
  4  5  2  0
  5  6  1  0
  6  7  2  0
  7  8  1  0
  8  9  2  0
  3 10  1  0
 10 11  1  0
 11 12  1  0
 12 13  1  0
 13 14  2  0
 14 15  1  0
 15 16  2  0
 16 17  1  0
 17 18  2  0
 18 19  1  0
 19 20  2  0
 20 21  1  0
 12  2  1  0
 21 13  1  0
  9  4  1  0
 21 17  1  0
  1 22  1  0
  1 23  1  0
  1 24  1  0
  2 25  1  0
  3 26  1  0
  5 27  1  0
  6 28  1  0
  7 29  1  0
  8 30  1  0
  9 31  1  0
 10 32  1  0
 10 33  1  0
 11 34  1  0
 11 35  1  0
 14 36  1  0
 15 37  1  0
 19 38  1  0
 20 39  1  0
M  END
>  <Energy>  (931) 
101.95272182409118

>  <compound_id>  (931) 
8782

>  <target_id>  (931) 
1

>  <reference_id>  (931) 
124

>  <inspiration_ids>  (931) 
[124, 106]

>  <energy_score>  (931) 
-32.21990460773911

>  <distance_score>  (931) 
2.236157107915383

>  <path>  (931) 
/opt/xchem-fragalysis-2/maxwin/BulkDock/SCRATCH/511014/C8782-P124/C8782-P124.minimised.mol

>  <scratch_subdir>  (931) 
/opt/xchem-fragalysis-2/maxwin/BulkDock/SCRATCH/511014/C8782-P124

>  <fragmenstein_runtime>  (931) 
263.58822655677795

>  <fragmenstein_outcome>  (931) 
too moved

>  <fragmenstein_mode>  (931) 
expansion

>  <fragmenstein_error>  (931) 


$$$$
C8782-P106
     RDKit          3D

 39 42  0  0  0  0  0  0  0  0999 V2000
   16.6076   -2.3844   14.3163 C   0  0  0  0  0  0  0  0  0  0  0  0
   16.2391   -1.6298   15.5930 C   0  0  0  0  0  0  0  0  0  0  0  0
   14.9018   -1.9886   16.2440 C   0  0  0  0  0  0  0  0  0  0  0  0
   13.6071   -1.5288   15.6641 C   0  0  0  0  0  0  0  0  0  0  0  0
   12.5367   -2.3948   15.4686 C   0  0  0  0  0  0  0  0  0  0  0  0
   11.2917   -1.8761   15.1443 C   0  0  0  0  0  0  0  0  0  0  0  0
   11.0964   -0.4990   15.0276 C   0  0  0  0  0  0  0  0  0  0  0  0
   12.1505    0.3791   15.2323 C   0  0  0  0  0  0  0  0  0  0  0  0
   13.4011   -0.1335   15.5481 C   0  0  0  0  0  0  0  0  0  0  0  0
   15.1589   -3.3866   16.7651 C   0  0  0  0  0  0  0  0  0  0  0  0
   16.6406   -3.3208   17.1851 C   0  0  0  0  0  0  0  0  0  0  0  0
   17.1558   -2.0070   16.7217 N   0  0  0  0  0  0  0  0  0  0  0  0
   17.4023   -0.9101   17.6050 C   0  0  0  0  0  0  0  0  0  0  0  0
   18.2970    0.0192   17.2111 C   0  0  0  0  0  0  0  0  0  0  0  0
   18.2763    1.3177   17.9201 C   0  0  0  0  0  0  0  0  0  0  0  0
   17.4541    1.6721   18.8532 N   0  0  0  0  0  0  0  0  0  0  0  0
   16.5881    0.7118   19.2812 C   0  0  0  0  0  0  0  0  0  0  0  0
   15.6721    0.8283   20.2208 N   0  0  0  0  0  0  0  0  0  0  0  0
   15.1016   -0.3989   20.3525 C   0  0  0  0  0  0  0  0  0  0  0  0
   15.6518   -1.2838   19.4608 C   0  0  0  0  0  0  0  0  0  0  0  0
   16.5841   -0.5778   18.7268 N   0  0  0  0  0  0  0  0  0  0  0  0
   15.8860   -2.1668   13.5224 H   0  0  0  0  0  0  0  0  0  0  0  0
   17.5985   -2.0717   13.9690 H   0  0  0  0  0  0  0  0  0  0  0  0
   16.6458   -3.4687   14.4493 H   0  0  0  0  0  0  0  0  0  0  0  0
   16.2959   -0.5563   15.3730 H   0  0  0  0  0  0  0  0  0  0  0  0
   14.8346   -1.4012   17.1628 H   0  0  0  0  0  0  0  0  0  0  0  0
   12.6367   -3.4668   15.6047 H   0  0  0  0  0  0  0  0  0  0  0  0
   10.4591   -2.5511   14.9575 H   0  0  0  0  0  0  0  0  0  0  0  0
   10.1147   -0.1223   14.7482 H   0  0  0  0  0  0  0  0  0  0  0  0
   11.9986    1.4513   15.1511 H   0  0  0  0  0  0  0  0  0  0  0  0
   14.2093    0.5654   15.7564 H   0  0  0  0  0  0  0  0  0  0  0  0
   14.5104   -3.6511   17.6071 H   0  0  0  0  0  0  0  0  0  0  0  0
   15.0137   -4.1546   16.0004 H   0  0  0  0  0  0  0  0  0  0  0  0
   17.1995   -4.1159   16.6766 H   0  0  0  0  0  0  0  0  0  0  0  0
   16.8013   -3.4874   18.2532 H   0  0  0  0  0  0  0  0  0  0  0  0
   18.9195   -0.0865   16.3340 H   0  0  0  0  0  0  0  0  0  0  0  0
   19.0178    2.0523   17.5641 H   0  0  0  0  0  0  0  0  0  0  0  0
   14.3272   -0.5895   21.0864 H   0  0  0  0  0  0  0  0  0  0  0  0
   15.4417   -2.3271   19.3188 H   0  0  0  0  0  0  0  0  0  0  0  0
  1  2  1  0
  2  3  1  0
  3  4  1  0
  4  5  2  0
  5  6  1  0
  6  7  2  0
  7  8  1  0
  8  9  2  0
  3 10  1  0
 10 11  1  0
 11 12  1  0
 12 13  1  0
 13 14  2  0
 14 15  1  0
 15 16  2  0
 16 17  1  0
 17 18  2  0
 18 19  1  0
 19 20  2  0
 20 21  1  0
 12  2  1  0
 21 13  1  0
  9  4  1  0
 21 17  1  0
  1 22  1  0
  1 23  1  0
  1 24  1  0
  2 25  1  0
  3 26  1  0
  5 27  1  0
  6 28  1  0
  7 29  1  0
  8 30  1  0
  9 31  1  0
 10 32  1  0
 10 33  1  0
 11 34  1  0
 11 35  1  0
 14 36  1  0
 15 37  1  0
 19 38  1  0
 20 39  1  0
M  END
>  <Energy>  (932) 
117.76874713219257

>  <compound_id>  (932) 
8782

>  <target_id>  (932) 
1

>  <reference_id>  (932) 
106

>  <inspiration_ids>  (932) 
[124, 106]

>  <energy_score>  (932) 
-16.40387929963763

>  <distance_score>  (932) 
2.274977474437591

>  <path>  (932) 
/opt/xchem-fragalysis-2/maxwin/BulkDock/SCRATCH/511014/C8782-P106/C8782-P106.minimised.mol

>  <scratch_subdir>  (932) 
/opt/xchem-fragalysis-2/maxwin/BulkDock/SCRATCH/511014/C8782-P106

>  <fragmenstein_runtime>  (932) 
273.93776845932007

>  <fragmenstein_outcome>  (932) 
too moved

>  <fragmenstein_mode>  (932) 
expansion

>  <fragmenstein_error>  (932) 


$$$$
C8784-P124
     RDKit          3D

 35 37  0  0  0  0  0  0  0  0999 V2000
   17.7491   -6.6182   15.5861 C   0  0  0  0  0  0  0  0  0  0  0  0
   16.8068   -5.6012   15.9400 O   0  0  0  0  0  0  0  0  0  0  0  0
   16.9918   -4.4238   15.2749 C   0  0  0  0  0  0  0  0  0  0  0  0
   17.8463   -4.2393   14.4191 O   0  0  0  0  0  0  0  0  0  0  0  0
   16.0729   -3.3531   15.8135 C   0  0  0  0  0  0  0  0  0  0  0  0
   14.7132   -3.8211   16.3629 C   0  0  0  0  0  0  0  0  0  0  0  0
   13.6951   -2.7528   15.9811 C   0  0  0  0  0  0  0  0  0  0  0  0
   14.5121   -1.6143   15.4969 N   0  0  0  0  0  0  0  0  0  0  0  0
   14.8258   -0.5861   16.4145 C   0  0  0  0  0  0  0  0  0  0  0  0
   15.1939   -0.8010   17.6951 C   0  0  0  0  0  0  0  0  0  0  0  0
   15.4494    0.3981   18.5143 C   0  0  0  0  0  0  0  0  0  0  0  0
   15.3454    1.6287   18.1332 N   0  0  0  0  0  0  0  0  0  0  0  0
   14.9666    1.8285   16.8381 C   0  0  0  0  0  0  0  0  0  0  0  0
   14.7315    2.9698   16.2257 N   0  0  0  0  0  0  0  0  0  0  0  0
   14.3340    2.6406   14.9561 C   0  0  0  0  0  0  0  0  0  0  0  0
   14.3218    1.2794   14.7813 C   0  0  0  0  0  0  0  0  0  0  0  0
   14.7117    0.7526   15.9875 N   0  0  0  0  0  0  0  0  0  0  0  0
   15.6701   -2.2731   14.8009 C   0  0  0  0  0  0  0  0  0  0  0  0
   16.7993   -1.3161   14.4211 C   0  0  0  0  0  0  0  0  0  0  0  0
   17.6029   -7.4650   16.2620 H   0  0  0  0  0  0  0  0  0  0  0  0
   18.7758   -6.2586   15.7093 H   0  0  0  0  0  0  0  0  0  0  0  0
   17.5759   -6.9549   14.5602 H   0  0  0  0  0  0  0  0  0  0  0  0
   16.6409   -2.9012   16.6375 H   0  0  0  0  0  0  0  0  0  0  0  0
   14.7675   -3.9381   17.4513 H   0  0  0  0  0  0  0  0  0  0  0  0
   14.3872   -4.7739   15.9624 H   0  0  0  0  0  0  0  0  0  0  0  0
   13.0488   -2.5146   16.8279 H   0  0  0  0  0  0  0  0  0  0  0  0
   13.0368   -3.0845   15.1725 H   0  0  0  0  0  0  0  0  0  0  0  0
   15.3019   -1.7609   18.1724 H   0  0  0  0  0  0  0  0  0  0  0  0
   15.7549    0.1949   19.5545 H   0  0  0  0  0  0  0  0  0  0  0  0
   14.0619    3.4022   14.2374 H   0  0  0  0  0  0  0  0  0  0  0  0
   14.0411    0.6517   13.9487 H   0  0  0  0  0  0  0  0  0  0  0  0
   15.3052   -2.7134   13.8675 H   0  0  0  0  0  0  0  0  0  0  0  0
   17.5673   -1.8280   13.8340 H   0  0  0  0  0  0  0  0  0  0  0  0
   16.4235   -0.4950   13.8029 H   0  0  0  0  0  0  0  0  0  0  0  0
   17.2937   -0.8847   15.2975 H   0  0  0  0  0  0  0  0  0  0  0  0
  1  2  1  0
  2  3  1  0
  3  4  2  0
  3  5  1  0
  5  6  1  0
  6  7  1  0
  7  8  1  0
  8  9  1  0
  9 10  2  0
 10 11  1  0
 11 12  2  0
 12 13  1  0
 13 14  2  0
 14 15  1  0
 15 16  2  0
 16 17  1  0
  8 18  1  0
 18 19  1  0
 18  5  1  0
 17  9  1  0
 17 13  1  0
  1 20  1  0
  1 21  1  0
  1 22  1  0
  5 23  1  0
  6 24  1  0
  6 25  1  0
  7 26  1  0
  7 27  1  0
 10 28  1  0
 11 29  1  0
 15 30  1  0
 16 31  1  0
 18 32  1  0
 19 33  1  0
 19 34  1  0
 19 35  1  0
M  END
>  <Energy>  (933) 
51.730873544329576

>  <compound_id>  (933) 
8784

>  <target_id>  (933) 
1

>  <reference_id>  (933) 
124

>  <inspiration_ids>  (933) 
[124, 106]

>  <energy_score>  (933) 
-31.763745486178834

>  <distance_score>  (933) 
3.0462870019725576

>  <path>  (933) 
/opt/xchem-fragalysis-2/maxwin/BulkDock/SCRATCH/511014/C8784-P124/C8784-P124.minimised.mol

>  <scratch_subdir>  (933) 
/opt/xchem-fragalysis-2/maxwin/BulkDock/SCRATCH/511014/C8784-P124

>  <fragmenstein_runtime>  (933) 
5.0170838832855225

>  <fragmenstein_outcome>  (933) 
too moved

>  <fragmenstein_mode>  (933) 
expansion

>  <fragmenstein_error>  (933) 


$$$$
C8784-P106
     RDKit          3D

 35 37  0  0  0  0  0  0  0  0999 V2000
   18.1285   -3.6358   18.5681 C   0  0  0  0  0  0  0  0  0  0  0  0
   17.1737   -4.6784   18.8100 O   0  0  0  0  0  0  0  0  0  0  0  0
   15.9164   -4.6585   18.3105 C   0  0  0  0  0  0  0  0  0  0  0  0
   15.1305   -5.5660   18.5712 O   0  0  0  0  0  0  0  0  0  0  0  0
   15.5045   -3.4861   17.4538 C   0  0  0  0  0  0  0  0  0  0  0  0
   14.4323   -3.8754   16.4319 C   0  0  0  0  0  0  0  0  0  0  0  0
   13.1431   -3.2928   16.9733 C   0  0  0  0  0  0  0  0  0  0  0  0
   13.6111   -1.9965   17.5084 N   0  0  0  0  0  0  0  0  0  0  0  0
   13.5799   -0.8126   16.7418 C   0  0  0  0  0  0  0  0  0  0  0  0
   13.2586   -0.8135   15.4385 C   0  0  0  0  0  0  0  0  0  0  0  0
   13.3442    0.4763   14.7335 C   0  0  0  0  0  0  0  0  0  0  0  0
   13.6967    1.6135   15.2329 N   0  0  0  0  0  0  0  0  0  0  0  0
   13.9818    1.6180   16.5574 C   0  0  0  0  0  0  0  0  0  0  0  0
   14.3490    2.6436   17.2963 N   0  0  0  0  0  0  0  0  0  0  0  0
   14.4942    2.1616   18.5613 C   0  0  0  0  0  0  0  0  0  0  0  0
   14.2398    0.8145   18.5977 C   0  0  0  0  0  0  0  0  0  0  0  0
   13.9189    0.4453   17.3103 N   0  0  0  0  0  0  0  0  0  0  0  0
   14.8661   -2.3320   18.2464 C   0  0  0  0  0  0  0  0  0  0  0  0
   14.5447   -2.6587   19.7122 C   0  0  0  0  0  0  0  0  0  0  0  0
   18.9975   -3.8267   19.2039 H   0  0  0  0  0  0  0  0  0  0  0  0
   17.7189   -2.6587   18.8355 H   0  0  0  0  0  0  0  0  0  0  0  0
   18.4539   -3.6612   17.5247 H   0  0  0  0  0  0  0  0  0  0  0  0
   16.3647   -3.1399   16.8719 H   0  0  0  0  0  0  0  0  0  0  0  0
   14.6916   -3.3784   15.4920 H   0  0  0  0  0  0  0  0  0  0  0  0
   14.3538   -4.9431   16.2440 H   0  0  0  0  0  0  0  0  0  0  0  0
   12.3499   -3.2146   16.2246 H   0  0  0  0  0  0  0  0  0  0  0  0
   12.7577   -3.9144   17.7875 H   0  0  0  0  0  0  0  0  0  0  0  0
   12.9779   -1.6709   14.8466 H   0  0  0  0  0  0  0  0  0  0  0  0
   13.0855    0.4350   13.6616 H   0  0  0  0  0  0  0  0  0  0  0  0
   14.7658    2.8108   19.3835 H   0  0  0  0  0  0  0  0  0  0  0  0
   14.2340    0.1241   19.4205 H   0  0  0  0  0  0  0  0  0  0  0  0
   15.5748   -1.4960   18.2378 H   0  0  0  0  0  0  0  0  0  0  0  0
   13.8483   -3.4983   19.8069 H   0  0  0  0  0  0  0  0  0  0  0  0
   15.4552   -2.9003   20.2699 H   0  0  0  0  0  0  0  0  0  0  0  0
   14.0820   -1.8126   20.2235 H   0  0  0  0  0  0  0  0  0  0  0  0
  1  2  1  0
  2  3  1  0
  3  4  2  0
  3  5  1  0
  5  6  1  0
  6  7  1  0
  7  8  1  0
  8  9  1  0
  9 10  2  0
 10 11  1  0
 11 12  2  0
 12 13  1  0
 13 14  2  0
 14 15  1  0
 15 16  2  0
 16 17  1  0
  8 18  1  0
 18 19  1  0
 18  5  1  0
 17  9  1  0
 17 13  1  0
  1 20  1  0
  1 21  1  0
  1 22  1  0
  5 23  1  0
  6 24  1  0
  6 25  1  0
  7 26  1  0
  7 27  1  0
 10 28  1  0
 11 29  1  0
 15 30  1  0
 16 31  1  0
 18 32  1  0
 19 33  1  0
 19 34  1  0
 19 35  1  0
M  END
>  <Energy>  (934) 
58.478088600510333

>  <compound_id>  (934) 
8784

>  <target_id>  (934) 
1

>  <reference_id>  (934) 
106

>  <inspiration_ids>  (934) 
[124, 106]

>  <energy_score>  (934) 
-25.016530429998227

>  <distance_score>  (934) 
3.46412350654066

>  <path>  (934) 
/opt/xchem-fragalysis-2/maxwin/BulkDock/SCRATCH/511014/C8784-P106/C8784-P106.minimised.mol

>  <scratch_subdir>  (934) 
/opt/xchem-fragalysis-2/maxwin/BulkDock/SCRATCH/511014/C8784-P106

>  <fragmenstein_runtime>  (934) 
4.812852621078491

>  <fragmenstein_outcome>  (934) 
too moved

>  <fragmenstein_mode>  (934) 
expansion

>  <fragmenstein_error>  (934) 


$$$$
C8786-P124
     RDKit          3D

 32 34  0  0  0  0  0  0  0  0999 V2000
   16.6553   -1.8935   11.3790 C   0  0  0  0  0  0  0  0  0  0  0  0
   15.7862   -0.7591   11.2456 O   0  0  0  0  0  0  0  0  0  0  0  0
   14.6863   -0.5453   12.0144 C   0  0  0  0  0  0  0  0  0  0  0  0
   14.1057    0.5355   11.9341 O   0  0  0  0  0  0  0  0  0  0  0  0
   14.2020   -1.6686   12.9221 C   0  0  0  0  0  0  0  0  0  0  0  0
   14.0907   -2.8327   12.2251 F   0  0  0  0  0  0  0  0  0  0  0  0
   12.8519   -1.3814   13.5874 C   0  0  0  0  0  0  0  0  0  0  0  0
   12.9094   -2.1160   14.9043 C   0  0  0  0  0  0  0  0  0  0  0  0
   14.3132   -2.0166   15.3189 N   0  0  0  0  0  0  0  0  0  0  0  0
   14.6950   -1.3307   16.4741 C   0  0  0  0  0  0  0  0  0  0  0  0
   14.8763   -2.0033   17.6241 C   0  0  0  0  0  0  0  0  0  0  0  0
   15.2299   -1.1887   18.8050 C   0  0  0  0  0  0  0  0  0  0  0  0
   15.3877    0.0955   18.8402 N   0  0  0  0  0  0  0  0  0  0  0  0
   15.2297    0.7600   17.6632 C   0  0  0  0  0  0  0  0  0  0  0  0
   15.2933    2.0593   17.4523 N   0  0  0  0  0  0  0  0  0  0  0  0
   15.0285    2.2413   16.1278 C   0  0  0  0  0  0  0  0  0  0  0  0
   14.7669    1.0410   15.5168 C   0  0  0  0  0  0  0  0  0  0  0  0
   14.8913    0.0779   16.4905 N   0  0  0  0  0  0  0  0  0  0  0  0
   15.1450   -1.8891   14.1064 C   0  0  0  0  0  0  0  0  0  0  0  0
   17.3555   -1.8706   10.5391 H   0  0  0  0  0  0  0  0  0  0  0  0
   17.2340   -1.8144   12.3020 H   0  0  0  0  0  0  0  0  0  0  0  0
   16.1067   -2.8331   11.3306 H   0  0  0  0  0  0  0  0  0  0  0  0
   12.0050   -1.7632   13.0229 H   0  0  0  0  0  0  0  0  0  0  0  0
   12.6866   -0.3144   13.7615 H   0  0  0  0  0  0  0  0  0  0  0  0
   12.6357   -3.1668   14.7820 H   0  0  0  0  0  0  0  0  0  0  0  0
   12.2024   -1.7043   15.6228 H   0  0  0  0  0  0  0  0  0  0  0  0
   14.7542   -3.0716   17.7277 H   0  0  0  0  0  0  0  0  0  0  0  0
   15.3556   -1.7585   19.7413 H   0  0  0  0  0  0  0  0  0  0  0  0
   15.0166    3.2285   15.6836 H   0  0  0  0  0  0  0  0  0  0  0  0
   14.4831    0.8297   14.5034 H   0  0  0  0  0  0  0  0  0  0  0  0
   15.8810   -1.0835   14.2022 H   0  0  0  0  0  0  0  0  0  0  0  0
   15.7150   -2.8161   13.9840 H   0  0  0  0  0  0  0  0  0  0  0  0
  1  2  1  0
  2  3  1  0
  3  4  2  0
  3  5  1  0
  5  6  1  0
  5  7  1  0
  7  8  1  0
  8  9  1  0
  9 10  1  0
 10 11  2  0
 11 12  1  0
 12 13  2  0
 13 14  1  0
 14 15  2  0
 15 16  1  0
 16 17  2  0
 17 18  1  0
  9 19  1  0
 19  5  1  0
 18 10  1  0
 18 14  1  0
  1 20  1  0
  1 21  1  0
  1 22  1  0
  7 23  1  0
  7 24  1  0
  8 25  1  0
  8 26  1  0
 11 27  1  0
 12 28  1  0
 16 29  1  0
 17 30  1  0
 19 31  1  0
 19 32  1  0
M  END
>  <Energy>  (935) 
96.293326388414613

>  <compound_id>  (935) 
8786

>  <target_id>  (935) 
1

>  <reference_id>  (935) 
124

>  <inspiration_ids>  (935) 
[124, 106]

>  <energy_score>  (935) 
-22.826011417691404

>  <distance_score>  (935) 
2.952333773462877

>  <path>  (935) 
/opt/xchem-fragalysis-2/maxwin/BulkDock/SCRATCH/511014/C8786-P124/C8786-P124.minimised.mol

>  <scratch_subdir>  (935) 
/opt/xchem-fragalysis-2/maxwin/BulkDock/SCRATCH/511014/C8786-P124

>  <fragmenstein_runtime>  (935) 
5.9046289920806885

>  <fragmenstein_outcome>  (935) 
too moved

>  <fragmenstein_mode>  (935) 
expansion

>  <fragmenstein_error>  (935) 


$$$$
C8786-P106
     RDKit          3D

 32 34  0  0  0  0  0  0  0  0999 V2000
   15.4329   -1.3914   11.8698 C   0  0  0  0  0  0  0  0  0  0  0  0
   14.4589   -2.0804   12.6524 O   0  0  0  0  0  0  0  0  0  0  0  0
   13.4962   -1.2797   13.1924 C   0  0  0  0  0  0  0  0  0  0  0  0
   13.4408   -0.0659   13.0298 O   0  0  0  0  0  0  0  0  0  0  0  0
   12.5210   -2.1030   14.0181 C   0  0  0  0  0  0  0  0  0  0  0  0
   12.1120   -3.2271   13.3699 F   0  0  0  0  0  0  0  0  0  0  0  0
   11.2901   -1.3359   14.4297 C   0  0  0  0  0  0  0  0  0  0  0  0
   11.6369   -0.6411   15.7087 C   0  0  0  0  0  0  0  0  0  0  0  0
   12.8165   -1.3258   16.2197 N   0  0  0  0  0  0  0  0  0  0  0  0
   13.7716   -0.7501   17.0511 C   0  0  0  0  0  0  0  0  0  0  0  0
   14.3857   -1.4972   17.9880 C   0  0  0  0  0  0  0  0  0  0  0  0
   15.2590   -0.7724   18.9289 C   0  0  0  0  0  0  0  0  0  0  0  0
   15.4986    0.4983   18.9359 N   0  0  0  0  0  0  0  0  0  0  0  0
   14.9209    1.2279   17.9430 C   0  0  0  0  0  0  0  0  0  0  0  0
   15.0270    2.5227   17.7247 N   0  0  0  0  0  0  0  0  0  0  0  0
   14.4005    2.7576   16.5400 C   0  0  0  0  0  0  0  0  0  0  0  0
   13.8848    1.5941   16.0299 C   0  0  0  0  0  0  0  0  0  0  0  0
   14.1144    0.6233   16.9789 N   0  0  0  0  0  0  0  0  0  0  0  0
   13.1438   -2.4658   15.3578 C   0  0  0  0  0  0  0  0  0  0  0  0
   16.1486   -2.1281   11.4946 H   0  0  0  0  0  0  0  0  0  0  0  0
   14.9589   -0.9026   11.0130 H   0  0  0  0  0  0  0  0  0  0  0  0
   15.9728   -0.6636   12.4833 H   0  0  0  0  0  0  0  0  0  0  0  0
   10.4683   -2.0321   14.6319 H   0  0  0  0  0  0  0  0  0  0  0  0
   10.9782   -0.5919   13.6926 H   0  0  0  0  0  0  0  0  0  0  0  0
   10.8084   -0.7328   16.4102 H   0  0  0  0  0  0  0  0  0  0  0  0
   11.7521    0.4254   15.5358 H   0  0  0  0  0  0  0  0  0  0  0  0
   14.1962   -2.5480   18.1533 H   0  0  0  0  0  0  0  0  0  0  0  0
   15.7212   -1.3981   19.7108 H   0  0  0  0  0  0  0  0  0  0  0  0
   14.3864    3.7440   16.0953 H   0  0  0  0  0  0  0  0  0  0  0  0
   13.4194    1.3984   15.0794 H   0  0  0  0  0  0  0  0  0  0  0  0
   12.6914   -3.3752   15.7704 H   0  0  0  0  0  0  0  0  0  0  0  0
   14.2262   -2.6233   15.2880 H   0  0  0  0  0  0  0  0  0  0  0  0
  1  2  1  0
  2  3  1  0
  3  4  2  0
  3  5  1  0
  5  6  1  0
  5  7  1  0
  7  8  1  0
  8  9  1  0
  9 10  1  0
 10 11  2  0
 11 12  1  0
 12 13  2  0
 13 14  1  0
 14 15  2  0
 15 16  1  0
 16 17  2  0
 17 18  1  0
  9 19  1  0
 19  5  1  0
 18 10  1  0
 18 14  1  0
  1 20  1  0
  1 21  1  0
  1 22  1  0
  7 23  1  0
  7 24  1  0
  8 25  1  0
  8 26  1  0
 11 27  1  0
 12 28  1  0
 16 29  1  0
 17 30  1  0
 19 31  1  0
 19 32  1  0
M  END
>  <Energy>  (936) 
87.314759899823102

>  <compound_id>  (936) 
8786

>  <target_id>  (936) 
1

>  <reference_id>  (936) 
106

>  <inspiration_ids>  (936) 
[124, 106]

>  <energy_score>  (936) 
-31.80457790628452

>  <distance_score>  (936) 
2.5802620070643334

>  <path>  (936) 
/opt/xchem-fragalysis-2/maxwin/BulkDock/SCRATCH/511014/C8786-P106/C8786-P106.minimised.mol

>  <scratch_subdir>  (936) 
/opt/xchem-fragalysis-2/maxwin/BulkDock/SCRATCH/511014/C8786-P106

>  <fragmenstein_runtime>  (936) 
5.766149520874023

>  <fragmenstein_outcome>  (936) 
too moved

>  <fragmenstein_mode>  (936) 
expansion

>  <fragmenstein_error>  (936) 


$$$$
C8788-P124
     RDKit          3D

 41 44  0  0  0  0  0  0  0  0999 V2000
   14.7289    0.0370   13.6710 O   0  0  0  0  0  0  0  0  0  0  0  0
   14.9046   -1.0535   14.2154 C   0  0  0  0  0  0  0  0  0  0  0  0
   16.2322   -1.8012   14.0573 C   0  0  0  0  0  0  0  0  0  0  0  0
   16.7924   -2.5176   15.2677 C   0  0  0  0  0  0  0  0  0  0  0  0
   18.0833   -3.2706   14.9313 C   0  0  0  0  0  0  0  0  0  0  0  0
   18.6774   -3.4725   16.3044 C   0  0  0  0  0  0  0  0  0  0  0  0
   18.4509   -2.1346   16.9696 C   0  0  0  0  0  0  0  0  0  0  0  0
   17.1720   -1.6786   16.4346 N   0  0  0  0  0  0  0  0  0  0  0  0
   16.6591   -0.4469   16.8504 C   0  0  0  0  0  0  0  0  0  0  0  0
   16.6983    0.6805   16.1177 C   0  0  0  0  0  0  0  0  0  0  0  0
   16.0945    1.8943   16.7241 C   0  0  0  0  0  0  0  0  0  0  0  0
   15.5704    1.9888   17.9051 N   0  0  0  0  0  0  0  0  0  0  0  0
   15.5665    0.8443   18.6444 C   0  0  0  0  0  0  0  0  0  0  0  0
   15.0765    0.6567   19.8534 N   0  0  0  0  0  0  0  0  0  0  0  0
   15.2836   -0.6609   20.1543 C   0  0  0  0  0  0  0  0  0  0  0  0
   15.9106   -1.3012   19.1162 C   0  0  0  0  0  0  0  0  0  0  0  0
   16.0961   -0.3440   18.1422 N   0  0  0  0  0  0  0  0  0  0  0  0
   13.7542   -1.7039   14.8930 C   0  0  0  0  0  0  0  0  0  0  0  0
   12.5470   -1.8065   14.2157 C   0  0  0  0  0  0  0  0  0  0  0  0
   11.5484   -2.6189   14.7323 C   0  0  0  0  0  0  0  0  0  0  0  0
   11.7507   -3.3157   15.9101 C   0  0  0  0  0  0  0  0  0  0  0  0
   12.8998   -3.1333   16.6416 C   0  0  0  0  0  0  0  0  0  0  0  0
   13.8819   -2.2998   16.1433 C   0  0  0  0  0  0  0  0  0  0  0  0
   16.9672   -1.0731   13.6914 H   0  0  0  0  0  0  0  0  0  0  0  0
   16.0821   -2.5177   13.2398 H   0  0  0  0  0  0  0  0  0  0  0  0
   16.0960   -3.2907   15.6067 H   0  0  0  0  0  0  0  0  0  0  0  0
   17.8963   -4.2145   14.4113 H   0  0  0  0  0  0  0  0  0  0  0  0
   18.7527   -2.6604   14.3126 H   0  0  0  0  0  0  0  0  0  0  0  0
   18.1386   -4.2640   16.8401 H   0  0  0  0  0  0  0  0  0  0  0  0
   19.7355   -3.7471   16.2701 H   0  0  0  0  0  0  0  0  0  0  0  0
   19.2440   -1.4302   16.6901 H   0  0  0  0  0  0  0  0  0  0  0  0
   18.4471   -2.2345   18.0592 H   0  0  0  0  0  0  0  0  0  0  0  0
   17.1261    0.7632   15.1301 H   0  0  0  0  0  0  0  0  0  0  0  0
   16.1126    2.7905   16.0813 H   0  0  0  0  0  0  0  0  0  0  0  0
   14.9569   -1.0793   21.0991 H   0  0  0  0  0  0  0  0  0  0  0  0
   16.2197   -2.3258   18.9795 H   0  0  0  0  0  0  0  0  0  0  0  0
   12.4007   -1.2991   13.2679 H   0  0  0  0  0  0  0  0  0  0  0  0
   10.6229   -2.7527   14.1909 H   0  0  0  0  0  0  0  0  0  0  0  0
   11.0143   -4.0289   16.2471 H   0  0  0  0  0  0  0  0  0  0  0  0
   13.0393   -3.6575   17.5835 H   0  0  0  0  0  0  0  0  0  0  0  0
   14.7551   -2.1833   16.7578 H   0  0  0  0  0  0  0  0  0  0  0  0
  1  2  2  0
  2  3  1  0
  3  4  1  0
  4  5  1  0
  5  6  1  0
  6  7  1  0
  7  8  1  0
  8  9  1  0
  9 10  2  0
 10 11  1  0
 11 12  2  0
 12 13  1  0
 13 14  2  0
 14 15  1  0
 15 16  2  0
 16 17  1  0
  2 18  1  0
 18 19  2  0
 19 20  1  0
 20 21  2  0
 21 22  1  0
 22 23  2  0
  8  4  1  0
 17  9  1  0
 23 18  1  0
 17 13  1  0
  3 24  1  0
  3 25  1  0
  4 26  1  0
  5 27  1  0
  5 28  1  0
  6 29  1  0
  6 30  1  0
  7 31  1  0
  7 32  1  0
 10 33  1  0
 11 34  1  0
 15 35  1  0
 16 36  1  0
 19 37  1  0
 20 38  1  0
 21 39  1  0
 22 40  1  0
 23 41  1  0
M  END
>  <Energy>  (937) 
106.91180299746655

>  <compound_id>  (937) 
8788

>  <target_id>  (937) 
1

>  <reference_id>  (937) 
124

>  <inspiration_ids>  (937) 
[124, 106]

>  <energy_score>  (937) 
-22.283074173209826

>  <distance_score>  (937) 
2.645523749637479

>  <path>  (937) 
/opt/xchem-fragalysis-2/maxwin/BulkDock/SCRATCH/511014/C8788-P124/C8788-P124.minimised.mol

>  <scratch_subdir>  (937) 
/opt/xchem-fragalysis-2/maxwin/BulkDock/SCRATCH/511014/C8788-P124

>  <fragmenstein_runtime>  (937) 
78.65004420280457

>  <fragmenstein_outcome>  (937) 
too moved

>  <fragmenstein_mode>  (937) 
expansion

>  <fragmenstein_error>  (937) 


$$$$
C8788-P106
     RDKit          3D

 41 44  0  0  0  0  0  0  0  0999 V2000
   15.3597   -1.5763   13.7820 O   0  0  0  0  0  0  0  0  0  0  0  0
   14.8857   -1.9964   14.8337 C   0  0  0  0  0  0  0  0  0  0  0  0
   15.5547   -3.0258   15.7324 C   0  0  0  0  0  0  0  0  0  0  0  0
   16.9359   -2.6811   16.2779 C   0  0  0  0  0  0  0  0  0  0  0  0
   18.0683   -3.2386   15.4117 C   0  0  0  0  0  0  0  0  0  0  0  0
   18.2710   -2.1620   14.3763 C   0  0  0  0  0  0  0  0  0  0  0  0
   17.9832   -0.8771   15.1248 C   0  0  0  0  0  0  0  0  0  0  0  0
   17.1890   -1.2385   16.3221 N   0  0  0  0  0  0  0  0  0  0  0  0
   16.6103   -0.2449   17.1443 C   0  0  0  0  0  0  0  0  0  0  0  0
   16.7659    1.0643   16.8358 C   0  0  0  0  0  0  0  0  0  0  0  0
   16.0790    2.0738   17.6650 C   0  0  0  0  0  0  0  0  0  0  0  0
   15.3335    1.8349   18.6882 N   0  0  0  0  0  0  0  0  0  0  0  0
   15.2176    0.5246   19.0375 C   0  0  0  0  0  0  0  0  0  0  0  0
   14.5511    0.0454   20.0648 N   0  0  0  0  0  0  0  0  0  0  0  0
   14.7674   -1.2967   20.0667 C   0  0  0  0  0  0  0  0  0  0  0  0
   15.5528   -1.6621   19.0031 C   0  0  0  0  0  0  0  0  0  0  0  0
   15.8399   -0.5077   18.3091 N   0  0  0  0  0  0  0  0  0  0  0  0
   13.5504   -1.4943   15.2212 C   0  0  0  0  0  0  0  0  0  0  0  0
   12.4740   -2.3757   15.2870 C   0  0  0  0  0  0  0  0  0  0  0  0
   11.1995   -1.8651   15.4507 C   0  0  0  0  0  0  0  0  0  0  0  0
   11.0116   -0.4958   15.6254 C   0  0  0  0  0  0  0  0  0  0  0  0
   12.0952    0.3777   15.6164 C   0  0  0  0  0  0  0  0  0  0  0  0
   13.3699   -0.1181   15.3854 C   0  0  0  0  0  0  0  0  0  0  0  0
   15.5902   -3.9863   15.2167 H   0  0  0  0  0  0  0  0  0  0  0  0
   14.8904   -3.1886   16.5903 H   0  0  0  0  0  0  0  0  0  0  0  0
   17.0793   -3.1502   17.2531 H   0  0  0  0  0  0  0  0  0  0  0  0
   18.9805   -3.3382   16.0141 H   0  0  0  0  0  0  0  0  0  0  0  0
   17.8522   -4.2170   14.9727 H   0  0  0  0  0  0  0  0  0  0  0  0
   17.5940   -2.3030   13.5299 H   0  0  0  0  0  0  0  0  0  0  0  0
   19.2859   -2.1733   13.9657 H   0  0  0  0  0  0  0  0  0  0  0  0
   17.4586   -0.1752   14.4676 H   0  0  0  0  0  0  0  0  0  0  0  0
   18.9246   -0.4153   15.4458 H   0  0  0  0  0  0  0  0  0  0  0  0
   17.3263    1.4455   15.9958 H   0  0  0  0  0  0  0  0  0  0  0  0
   16.2225    3.1190   17.3439 H   0  0  0  0  0  0  0  0  0  0  0  0
   14.3446   -1.9320   20.8364 H   0  0  0  0  0  0  0  0  0  0  0  0
   15.9264   -2.6309   18.7379 H   0  0  0  0  0  0  0  0  0  0  0  0
   12.5966   -3.4396   15.1395 H   0  0  0  0  0  0  0  0  0  0  0  0
   10.3459   -2.5263   15.3605 H   0  0  0  0  0  0  0  0  0  0  0  0
   10.0038   -0.0962   15.7084 H   0  0  0  0  0  0  0  0  0  0  0  0
   11.9391    1.4471   15.7349 H   0  0  0  0  0  0  0  0  0  0  0  0
   14.2107    0.5623   15.2951 H   0  0  0  0  0  0  0  0  0  0  0  0
  1  2  2  0
  2  3  1  0
  3  4  1  0
  4  5  1  0
  5  6  1  0
  6  7  1  0
  7  8  1  0
  8  9  1  0
  9 10  2  0
 10 11  1  0
 11 12  2  0
 12 13  1  0
 13 14  2  0
 14 15  1  0
 15 16  2  0
 16 17  1  0
  2 18  1  0
 18 19  2  0
 19 20  1  0
 20 21  2  0
 21 22  1  0
 22 23  2  0
  8  4  1  0
 17  9  1  0
 23 18  1  0
 17 13  1  0
  3 24  1  0
  3 25  1  0
  4 26  1  0
  5 27  1  0
  5 28  1  0
  6 29  1  0
  6 30  1  0
  7 31  1  0
  7 32  1  0
 10 33  1  0
 11 34  1  0
 15 35  1  0
 16 36  1  0
 19 37  1  0
 20 38  1  0
 21 39  1  0
 22 40  1  0
 23 41  1  0
M  END
>  <Energy>  (938) 
101.27985085932247

>  <compound_id>  (938) 
8788

>  <target_id>  (938) 
1

>  <reference_id>  (938) 
106

>  <inspiration_ids>  (938) 
[124, 106]

>  <energy_score>  (938) 
-27.915026311355547

>  <distance_score>  (938) 
2.2518380793541297

>  <path>  (938) 
/opt/xchem-fragalysis-2/maxwin/BulkDock/SCRATCH/511014/C8788-P106/C8788-P106.minimised.mol

>  <scratch_subdir>  (938) 
/opt/xchem-fragalysis-2/maxwin/BulkDock/SCRATCH/511014/C8788-P106

>  <fragmenstein_runtime>  (938) 
78.67867231369019

>  <fragmenstein_outcome>  (938) 
too moved

>  <fragmenstein_mode>  (938) 
expansion

>  <fragmenstein_error>  (938) 


$$$$
C8789-P124
     RDKit          3D

 43 45  0  0  0  0  0  0  0  0999 V2000
   16.6074    3.6320   17.2248 C   0  0  0  0  0  0  0  0  0  0  0  0
   17.2773    2.3466   17.6854 C   0  0  0  0  0  0  0  0  0  0  0  0
   16.4692    1.6641   18.7911 C   0  0  0  0  0  0  0  0  0  0  0  0
   17.1418    0.3818   19.3359 C   0  0  0  0  0  0  0  0  0  0  0  0
   17.4187   -0.6271   18.3184 N   0  0  0  0  0  0  0  0  0  0  0  0
   18.1381   -1.8236   18.7502 C   0  0  0  0  0  0  0  0  0  0  0  0
   17.6774   -2.9019   17.7576 C   0  0  0  0  0  0  0  0  0  0  0  0
   16.2006   -2.5968   17.6872 C   0  0  0  0  0  0  0  0  0  0  0  0
   15.4051   -3.1320   16.5173 C   0  0  0  0  0  0  0  0  0  0  0  0
   13.9961   -2.8328   16.7816 N   0  0  0  0  0  0  0  0  0  0  0  0
   13.2196   -2.3008   15.7682 C   0  0  0  0  0  0  0  0  0  0  0  0
   12.1267   -2.9451   15.3500 C   0  0  0  0  0  0  0  0  0  0  0  0
   11.5335   -2.3894   14.1357 C   0  0  0  0  0  0  0  0  0  0  0  0
   11.8925   -1.3295   13.4959 N   0  0  0  0  0  0  0  0  0  0  0  0
   12.9090   -0.6122   14.0120 C   0  0  0  0  0  0  0  0  0  0  0  0
   13.4343    0.5153   13.5777 N   0  0  0  0  0  0  0  0  0  0  0  0
   14.2817    0.9283   14.5518 C   0  0  0  0  0  0  0  0  0  0  0  0
   14.2914    0.0149   15.5639 C   0  0  0  0  0  0  0  0  0  0  0  0
   13.5429   -1.0583   15.1563 N   0  0  0  0  0  0  0  0  0  0  0  0
   16.2150   -1.0885   17.6627 C   0  0  0  0  0  0  0  0  0  0  0  0
   15.6067    3.4322   16.8286 H   0  0  0  0  0  0  0  0  0  0  0  0
   17.1979    4.1046   16.4337 H   0  0  0  0  0  0  0  0  0  0  0  0
   16.5145    4.3442   18.0509 H   0  0  0  0  0  0  0  0  0  0  0  0
   18.2855    2.5755   18.0495 H   0  0  0  0  0  0  0  0  0  0  0  0
   17.3858    1.6799   16.8230 H   0  0  0  0  0  0  0  0  0  0  0  0
   16.3534    2.3619   19.6304 H   0  0  0  0  0  0  0  0  0  0  0  0
   15.4554    1.4516   18.4351 H   0  0  0  0  0  0  0  0  0  0  0  0
   16.5132   -0.0349   20.1336 H   0  0  0  0  0  0  0  0  0  0  0  0
   18.0899    0.6739   19.8047 H   0  0  0  0  0  0  0  0  0  0  0  0
   17.8576   -2.1163   19.7700 H   0  0  0  0  0  0  0  0  0  0  0  0
   19.2219   -1.6793   18.7128 H   0  0  0  0  0  0  0  0  0  0  0  0
   17.8805   -3.9123   18.1242 H   0  0  0  0  0  0  0  0  0  0  0  0
   18.1655   -2.7751   16.7836 H   0  0  0  0  0  0  0  0  0  0  0  0
   15.7411   -2.9388   18.6273 H   0  0  0  0  0  0  0  0  0  0  0  0
   15.7545   -2.7114   15.5662 H   0  0  0  0  0  0  0  0  0  0  0  0
   15.5303   -4.2169   16.4434 H   0  0  0  0  0  0  0  0  0  0  0  0
   13.5494   -3.6401   17.2196 H   0  0  0  0  0  0  0  0  0  0  0  0
   11.7539   -3.8756   15.7491 H   0  0  0  0  0  0  0  0  0  0  0  0
   10.7457   -3.0219   13.7280 H   0  0  0  0  0  0  0  0  0  0  0  0
   14.7661    1.8945   14.5094 H   0  0  0  0  0  0  0  0  0  0  0  0
   14.6404    0.1480   16.5571 H   0  0  0  0  0  0  0  0  0  0  0  0
   15.3007   -0.7317   18.1449 H   0  0  0  0  0  0  0  0  0  0  0  0
   16.3381   -0.7452   16.6358 H   0  0  0  0  0  0  0  0  0  0  0  0
  1  2  1  0
  2  3  1  0
  3  4  1  0
  4  5  1  0
  5  6  1  0
  6  7  1  0
  7  8  1  0
  8  9  1  0
  9 10  1  0
 10 11  1  0
 11 12  2  0
 12 13  1  0
 13 14  2  0
 14 15  1  0
 15 16  2  0
 16 17  1  0
 17 18  2  0
 18 19  1  0
  8 20  1  0
 20  5  1  0
 19 11  1  0
 19 15  1  0
  1 21  1  0
  1 22  1  0
  1 23  1  0
  2 24  1  0
  2 25  1  0
  3 26  1  0
  3 27  1  0
  4 28  1  0
  4 29  1  0
  6 30  1  0
  6 31  1  0
  7 32  1  0
  7 33  1  0
  8 34  1  0
  9 35  1  0
  9 36  1  0
 10 37  1  0
 12 38  1  0
 13 39  1  0
 17 40  1  0
 18 41  1  0
 20 42  1  0
 20 43  1  0
M  END
>  <Energy>  (939) 
74.878402679059121

>  <compound_id>  (939) 
8789

>  <target_id>  (939) 
1

>  <reference_id>  (939) 
124

>  <inspiration_ids>  (939) 
[124, 106]

>  <energy_score>  (939) 
-21.43624958018887

>  <distance_score>  (939) 
2.34736189286761

>  <path>  (939) 
/opt/xchem-fragalysis-2/maxwin/BulkDock/SCRATCH/511014/C8789-P124/C8789-P124.minimised.mol

>  <scratch_subdir>  (939) 
/opt/xchem-fragalysis-2/maxwin/BulkDock/SCRATCH/511014/C8789-P124

>  <fragmenstein_runtime>  (939) 
2.067005157470703

>  <fragmenstein_outcome>  (939) 
too moved

>  <fragmenstein_mode>  (939) 
expansion

>  <fragmenstein_error>  (939) 


$$$$
C8789-P106
     RDKit          3D

 43 45  0  0  0  0  0  0  0  0999 V2000
   17.8592    3.8571   16.6501 C   0  0  0  0  0  0  0  0  0  0  0  0
   18.0964    2.4106   17.0559 C   0  0  0  0  0  0  0  0  0  0  0  0
   16.8182    1.7690   17.6062 C   0  0  0  0  0  0  0  0  0  0  0  0
   17.0432    0.3231   18.0770 C   0  0  0  0  0  0  0  0  0  0  0  0
   17.4112   -0.5979   16.9862 N   0  0  0  0  0  0  0  0  0  0  0  0
   17.9632   -1.8694   17.5040 C   0  0  0  0  0  0  0  0  0  0  0  0
   17.0982   -2.9887   16.9297 C   0  0  0  0  0  0  0  0  0  0  0  0
   15.7755   -2.2746   16.7366 C   0  0  0  0  0  0  0  0  0  0  0  0
   14.7572   -3.0356   15.9075 C   0  0  0  0  0  0  0  0  0  0  0  0
   13.3750   -2.7939   16.3674 N   0  0  0  0  0  0  0  0  0  0  0  0
   12.7214   -1.6627   15.8880 C   0  0  0  0  0  0  0  0  0  0  0  0
   11.9891   -1.6890   14.7628 C   0  0  0  0  0  0  0  0  0  0  0  0
   11.5069   -0.3713   14.2833 C   0  0  0  0  0  0  0  0  0  0  0  0
   11.7161    0.7841   14.8274 N   0  0  0  0  0  0  0  0  0  0  0  0
   12.4685    0.7807   15.9529 C   0  0  0  0  0  0  0  0  0  0  0  0
   12.8876    1.8115   16.6536 N   0  0  0  0  0  0  0  0  0  0  0  0
   13.5595    1.2980   17.7195 C   0  0  0  0  0  0  0  0  0  0  0  0
   13.5727   -0.0722   17.6684 C   0  0  0  0  0  0  0  0  0  0  0  0
   12.9216   -0.4134   16.5083 N   0  0  0  0  0  0  0  0  0  0  0  0
   16.2760   -0.9693   16.1252 C   0  0  0  0  0  0  0  0  0  0  0  0
   17.0948    3.9250   15.8694 H   0  0  0  0  0  0  0  0  0  0  0  0
   18.7825    4.2977   16.2610 H   0  0  0  0  0  0  0  0  0  0  0  0
   17.5313    4.4560   17.5057 H   0  0  0  0  0  0  0  0  0  0  0  0
   18.8871    2.3760   17.8143 H   0  0  0  0  0  0  0  0  0  0  0  0
   18.4563    1.8526   16.1842 H   0  0  0  0  0  0  0  0  0  0  0  0
   16.4630    2.3592   18.4597 H   0  0  0  0  0  0  0  0  0  0  0  0
   16.0450    1.8176   16.8346 H   0  0  0  0  0  0  0  0  0  0  0  0
   17.8676    0.3556   18.8025 H   0  0  0  0  0  0  0  0  0  0  0  0
   16.1738   -0.0388   18.6327 H   0  0  0  0  0  0  0  0  0  0  0  0
   17.9367   -1.9160   18.6000 H   0  0  0  0  0  0  0  0  0  0  0  0
   19.0068   -1.9861   17.1941 H   0  0  0  0  0  0  0  0  0  0  0  0
   17.0207   -3.8403   17.6128 H   0  0  0  0  0  0  0  0  0  0  0  0
   17.5039   -3.3439   15.9744 H   0  0  0  0  0  0  0  0  0  0  0  0
   15.3790   -2.1187   17.7445 H   0  0  0  0  0  0  0  0  0  0  0  0
   14.8663   -2.7806   14.8481 H   0  0  0  0  0  0  0  0  0  0  0  0
   14.9363   -4.1107   16.0173 H   0  0  0  0  0  0  0  0  0  0  0  0
   13.3377   -2.8399   17.3872 H   0  0  0  0  0  0  0  0  0  0  0  0
   11.7921   -2.5729   14.1732 H   0  0  0  0  0  0  0  0  0  0  0  0
   10.9476   -0.3778   13.3430 H   0  0  0  0  0  0  0  0  0  0  0  0
   13.9691    1.9450   18.4847 H   0  0  0  0  0  0  0  0  0  0  0  0
   13.9724   -0.7964   18.3554 H   0  0  0  0  0  0  0  0  0  0  0  0
   15.5325   -0.1848   16.0143 H   0  0  0  0  0  0  0  0  0  0  0  0
   16.6627   -1.1504   15.1129 H   0  0  0  0  0  0  0  0  0  0  0  0
  1  2  1  0
  2  3  1  0
  3  4  1  0
  4  5  1  0
  5  6  1  0
  6  7  1  0
  7  8  1  0
  8  9  1  0
  9 10  1  0
 10 11  1  0
 11 12  2  0
 12 13  1  0
 13 14  2  0
 14 15  1  0
 15 16  2  0
 16 17  1  0
 17 18  2  0
 18 19  1  0
  8 20  1  0
 20  5  1  0
 19 11  1  0
 19 15  1  0
  1 21  1  0
  1 22  1  0
  1 23  1  0
  2 24  1  0
  2 25  1  0
  3 26  1  0
  3 27  1  0
  4 28  1  0
  4 29  1  0
  6 30  1  0
  6 31  1  0
  7 32  1  0
  7 33  1  0
  8 34  1  0
  9 35  1  0
  9 36  1  0
 10 37  1  0
 12 38  1  0
 13 39  1  0
 17 40  1  0
 18 41  1  0
 20 42  1  0
 20 43  1  0
M  END
>  <Energy>  (940) 
69.267994084631781

>  <compound_id>  (940) 
8789

>  <target_id>  (940) 
1

>  <reference_id>  (940) 
106

>  <inspiration_ids>  (940) 
[124, 106]

>  <energy_score>  (940) 
-27.04665817461668

>  <distance_score>  (940) 
1.5641214619215598

>  <path>  (940) 
/opt/xchem-fragalysis-2/maxwin/BulkDock/SCRATCH/511014/C8789-P106/C8789-P106.minimised.mol

>  <scratch_subdir>  (940) 
/opt/xchem-fragalysis-2/maxwin/BulkDock/SCRATCH/511014/C8789-P106

>  <fragmenstein_runtime>  (940) 
2.0235774517059326

>  <fragmenstein_outcome>  (940) 
too moved

>  <fragmenstein_mode>  (940) 
expansion

>  <fragmenstein_error>  (940) 


$$$$
C8774-P124
     RDKit          3D

 37 39  0  0  0  0  0  0  0  0999 V2000
   14.9126    1.8872   17.8069 F   0  0  0  0  0  0  0  0  0  0  0  0
   16.1900    1.6262   18.1576 C   0  0  0  0  0  0  0  0  0  0  0  0
   16.9497    1.6371   17.0405 F   0  0  0  0  0  0  0  0  0  0  0  0
   16.6075    2.6533   18.9369 F   0  0  0  0  0  0  0  0  0  0  0  0
   16.3239    0.2928   18.9291 C   0  0  0  0  0  0  0  0  0  0  0  0
   16.1021   -1.0086   18.2395 N   0  0  0  0  0  0  0  0  0  0  0  0
   16.1575   -2.1298   19.1981 C   0  0  0  0  0  0  0  0  0  0  0  0
   16.5725   -3.3547   18.3783 C   0  0  0  0  0  0  0  0  0  0  0  0
   16.8290   -2.8265   16.9694 C   0  0  0  0  0  0  0  0  0  0  0  0
   15.6438   -3.1139   16.0321 C   0  0  0  0  0  0  0  0  0  0  0  0
   14.3508   -2.7334   16.6226 N   0  0  0  0  0  0  0  0  0  0  0  0
   13.3990   -2.2447   15.7437 C   0  0  0  0  0  0  0  0  0  0  0  0
   12.2653   -2.8999   15.4784 C   0  0  0  0  0  0  0  0  0  0  0  0
   11.3976   -2.2380   14.4915 C   0  0  0  0  0  0  0  0  0  0  0  0
   11.6433   -1.1424   13.8493 N   0  0  0  0  0  0  0  0  0  0  0  0
   12.7888   -0.4892   14.1528 C   0  0  0  0  0  0  0  0  0  0  0  0
   13.2479    0.6620   13.7023 N   0  0  0  0  0  0  0  0  0  0  0  0
   14.3174    0.9738   14.4838 C   0  0  0  0  0  0  0  0  0  0  0  0
   14.5576   -0.0351   15.3689 C   0  0  0  0  0  0  0  0  0  0  0  0
   13.6225   -1.0006   15.1240 N   0  0  0  0  0  0  0  0  0  0  0  0
   17.1287   -1.3485   17.2406 C   0  0  0  0  0  0  0  0  0  0  0  0
   17.3220    0.2835   19.3869 H   0  0  0  0  0  0  0  0  0  0  0  0
   15.6065    0.3518   19.7580 H   0  0  0  0  0  0  0  0  0  0  0  0
   15.1808   -2.2791   19.6706 H   0  0  0  0  0  0  0  0  0  0  0  0
   16.8971   -1.9616   19.9912 H   0  0  0  0  0  0  0  0  0  0  0  0
   15.8200   -4.1494   18.4122 H   0  0  0  0  0  0  0  0  0  0  0  0
   17.5002   -3.7686   18.7926 H   0  0  0  0  0  0  0  0  0  0  0  0
   17.7167   -3.3068   16.5401 H   0  0  0  0  0  0  0  0  0  0  0  0
   15.6109   -4.1908   15.8315 H   0  0  0  0  0  0  0  0  0  0  0  0
   15.8259   -2.6203   15.0695 H   0  0  0  0  0  0  0  0  0  0  0  0
   14.5659   -1.9799   17.2916 H   0  0  0  0  0  0  0  0  0  0  0  0
   11.9862   -3.8470   15.9145 H   0  0  0  0  0  0  0  0  0  0  0  0
   10.4575   -2.7732   14.3124 H   0  0  0  0  0  0  0  0  0  0  0  0
   14.8428    1.9130   14.3741 H   0  0  0  0  0  0  0  0  0  0  0  0
   15.2597   -0.1000   16.1599 H   0  0  0  0  0  0  0  0  0  0  0  0
   18.1341   -1.2511   17.6738 H   0  0  0  0  0  0  0  0  0  0  0  0
   17.1185   -0.7507   16.3284 H   0  0  0  0  0  0  0  0  0  0  0  0
  1  2  1  0
  2  3  1  0
  2  4  1  0
  2  5  1  0
  5  6  1  0
  6  7  1  0
  7  8  1  0
  8  9  1  0
  9 10  1  0
 10 11  1  0
 11 12  1  0
 12 13  2  0
 13 14  1  0
 14 15  2  0
 15 16  1  0
 16 17  2  0
 17 18  1  0
 18 19  2  0
 19 20  1  0
  9 21  1  0
 21  6  1  0
 20 12  1  0
 20 16  1  0
  5 22  1  0
  5 23  1  0
  7 24  1  0
  7 25  1  0
  8 26  1  0
  8 27  1  0
  9 28  1  0
 10 29  1  0
 10 30  1  0
 11 31  1  0
 13 32  1  0
 14 33  1  0
 18 34  1  0
 19 35  1  0
 21 36  1  0
 21 37  1  0
M  END
>  <Energy>  (941) 
131.64876578296921

>  <compound_id>  (941) 
8774

>  <target_id>  (941) 
1

>  <reference_id>  (941) 
124

>  <inspiration_ids>  (941) 
[124, 106]

>  <energy_score>  (941) 
-28.5442816457863

>  <distance_score>  (941) 
2.281136570807836

>  <path>  (941) 
/opt/xchem-fragalysis-2/maxwin/BulkDock/SCRATCH/511014/C8774-P124/C8774-P124.minimised.mol

>  <scratch_subdir>  (941) 
/opt/xchem-fragalysis-2/maxwin/BulkDock/SCRATCH/511014/C8774-P124

>  <fragmenstein_runtime>  (941) 
1.5925569534301758

>  <fragmenstein_outcome>  (941) 
too moved

>  <fragmenstein_mode>  (941) 
expansion

>  <fragmenstein_error>  (941) 


$$$$
C8774-P106
     RDKit          3D

 37 39  0  0  0  0  0  0  0  0999 V2000
   15.7833    2.8749   18.3169 F   0  0  0  0  0  0  0  0  0  0  0  0
   16.5412    1.7853   18.5834 C   0  0  0  0  0  0  0  0  0  0  0  0
   17.7127    2.2242   19.1049 F   0  0  0  0  0  0  0  0  0  0  0  0
   15.9159    1.0789   19.5514 F   0  0  0  0  0  0  0  0  0  0  0  0
   16.7949    0.9662   17.3033 C   0  0  0  0  0  0  0  0  0  0  0  0
   16.4041   -0.4521   17.2725 N   0  0  0  0  0  0  0  0  0  0  0  0
   17.2101   -1.3390   18.0966 C   0  0  0  0  0  0  0  0  0  0  0  0
   16.7024   -2.7049   17.6564 C   0  0  0  0  0  0  0  0  0  0  0  0
   16.2922   -2.5122   16.1946 C   0  0  0  0  0  0  0  0  0  0  0  0
   14.9447   -3.1278   15.8237 C   0  0  0  0  0  0  0  0  0  0  0  0
   13.7673   -2.6715   16.5713 N   0  0  0  0  0  0  0  0  0  0  0  0
   12.9746   -1.6790   15.9996 C   0  0  0  0  0  0  0  0  0  0  0  0
   12.2581   -1.8724   14.8796 C   0  0  0  0  0  0  0  0  0  0  0  0
   11.6849   -0.6503   14.2730 C   0  0  0  0  0  0  0  0  0  0  0  0
   11.7552    0.5595   14.7223 N   0  0  0  0  0  0  0  0  0  0  0  0
   12.4454    0.7155   15.8755 C   0  0  0  0  0  0  0  0  0  0  0  0
   12.7020    1.8322   16.5165 N   0  0  0  0  0  0  0  0  0  0  0  0
   13.3824    1.4695   17.6363 C   0  0  0  0  0  0  0  0  0  0  0  0
   13.5909    0.1139   17.6679 C   0  0  0  0  0  0  0  0  0  0  0  0
   13.0180   -0.3753   16.5243 N   0  0  0  0  0  0  0  0  0  0  0  0
   16.4160   -1.0151   15.9287 C   0  0  0  0  0  0  0  0  0  0  0  0
   17.8557    1.0602   17.0357 H   0  0  0  0  0  0  0  0  0  0  0  0
   16.2508    1.4799   16.4995 H   0  0  0  0  0  0  0  0  0  0  0  0
   17.0534   -1.1829   19.1679 H   0  0  0  0  0  0  0  0  0  0  0  0
   18.2801   -1.2391   17.8768 H   0  0  0  0  0  0  0  0  0  0  0  0
   15.8647   -3.0213   18.2866 H   0  0  0  0  0  0  0  0  0  0  0  0
   17.4844   -3.4656   17.7550 H   0  0  0  0  0  0  0  0  0  0  0  0
   17.0429   -3.0160   15.5688 H   0  0  0  0  0  0  0  0  0  0  0  0
   15.0144   -4.2124   15.9592 H   0  0  0  0  0  0  0  0  0  0  0  0
   14.8132   -2.9168   14.7596 H   0  0  0  0  0  0  0  0  0  0  0  0
   14.0262   -2.4385   17.5289 H   0  0  0  0  0  0  0  0  0  0  0  0
   12.1607   -2.8133   14.3597 H   0  0  0  0  0  0  0  0  0  0  0  0
   11.2074   -0.7892   13.3035 H   0  0  0  0  0  0  0  0  0  0  0  0
   13.6402    2.2051   18.3870 H   0  0  0  0  0  0  0  0  0  0  0  0
   14.0718   -0.5109   18.4043 H   0  0  0  0  0  0  0  0  0  0  0  0
   17.3722   -0.8101   15.4289 H   0  0  0  0  0  0  0  0  0  0  0  0
   15.6196   -0.6188   15.2929 H   0  0  0  0  0  0  0  0  0  0  0  0
  1  2  1  0
  2  3  1  0
  2  4  1  0
  2  5  1  0
  5  6  1  0
  6  7  1  0
  7  8  1  0
  8  9  1  0
  9 10  1  0
 10 11  1  0
 11 12  1  0
 12 13  2  0
 13 14  1  0
 14 15  2  0
 15 16  1  0
 16 17  2  0
 17 18  1  0
 18 19  2  0
 19 20  1  0
  9 21  1  0
 21  6  1  0
 20 12  1  0
 20 16  1  0
  5 22  1  0
  5 23  1  0
  7 24  1  0
  7 25  1  0
  8 26  1  0
  8 27  1  0
  9 28  1  0
 10 29  1  0
 10 30  1  0
 11 31  1  0
 13 32  1  0
 14 33  1  0
 18 34  1  0
 19 35  1  0
 21 36  1  0
 21 37  1  0
M  END
>  <Energy>  (942) 
133.08601926865444

>  <compound_id>  (942) 
8774

>  <target_id>  (942) 
1

>  <reference_id>  (942) 
106

>  <inspiration_ids>  (942) 
[124, 106]

>  <energy_score>  (942) 
-27.10702816010121

>  <distance_score>  (942) 
1.8063794552034083

>  <path>  (942) 
/opt/xchem-fragalysis-2/maxwin/BulkDock/SCRATCH/511014/C8774-P106/C8774-P106.minimised.mol

>  <scratch_subdir>  (942) 
/opt/xchem-fragalysis-2/maxwin/BulkDock/SCRATCH/511014/C8774-P106

>  <fragmenstein_runtime>  (942) 
2.088777542114258

>  <fragmenstein_outcome>  (942) 
too moved

>  <fragmenstein_mode>  (942) 
expansion

>  <fragmenstein_error>  (942) 


$$$$
C8790-P124
     RDKit          3D

 40 42  0  0  0  0  0  0  0  0999 V2000
   16.2925    1.3902   17.9905 C   0  0  0  0  0  0  0  0  0  0  0  0
   16.4865    0.1491   18.8740 C   0  0  0  0  0  0  0  0  0  0  0  0
   15.5532    0.2944   20.0825 C   0  0  0  0  0  0  0  0  0  0  0  0
   16.2434   -1.1308   18.1704 N   0  0  0  0  0  0  0  0  0  0  0  0
   16.3488   -2.2986   19.0733 C   0  0  0  0  0  0  0  0  0  0  0  0
   16.7187   -3.4894   18.1888 C   0  0  0  0  0  0  0  0  0  0  0  0
   16.8894   -2.9058   16.7928 C   0  0  0  0  0  0  0  0  0  0  0  0
   15.6505   -3.1649   15.9217 C   0  0  0  0  0  0  0  0  0  0  0  0
   14.3872   -2.7884   16.5812 N   0  0  0  0  0  0  0  0  0  0  0  0
   13.4011   -2.2808   15.7497 C   0  0  0  0  0  0  0  0  0  0  0  0
   12.2535   -2.9229   15.5104 C   0  0  0  0  0  0  0  0  0  0  0  0
   11.3640   -2.2449   14.5512 C   0  0  0  0  0  0  0  0  0  0  0  0
   11.6051   -1.1486   13.9077 N   0  0  0  0  0  0  0  0  0  0  0  0
   12.7667   -0.5113   14.1825 C   0  0  0  0  0  0  0  0  0  0  0  0
   13.2283    0.6376   13.7272 N   0  0  0  0  0  0  0  0  0  0  0  0
   14.3224    0.9311   14.4811 C   0  0  0  0  0  0  0  0  0  0  0  0
   14.5708   -0.0849   15.3547 C   0  0  0  0  0  0  0  0  0  0  0  0
   13.6175   -1.0365   15.1305 N   0  0  0  0  0  0  0  0  0  0  0  0
   17.2099   -1.4408   17.1034 C   0  0  0  0  0  0  0  0  0  0  0  0
   16.9263    1.3576   17.0993 H   0  0  0  0  0  0  0  0  0  0  0  0
   15.2493    1.5071   17.6820 H   0  0  0  0  0  0  0  0  0  0  0  0
   16.5700    2.2955   18.5430 H   0  0  0  0  0  0  0  0  0  0  0  0
   17.5202    0.1662   19.2453 H   0  0  0  0  0  0  0  0  0  0  0  0
   14.5127    0.1544   19.7885 H   0  0  0  0  0  0  0  0  0  0  0  0
   15.7845   -0.4320   20.8682 H   0  0  0  0  0  0  0  0  0  0  0  0
   15.6464    1.2881   20.5347 H   0  0  0  0  0  0  0  0  0  0  0  0
   15.3984   -2.4802   19.5867 H   0  0  0  0  0  0  0  0  0  0  0  0
   17.1319   -2.1646   19.8305 H   0  0  0  0  0  0  0  0  0  0  0  0
   15.9713   -4.2880   18.2369 H   0  0  0  0  0  0  0  0  0  0  0  0
   17.6701   -3.9141   18.5324 H   0  0  0  0  0  0  0  0  0  0  0  0
   17.7488   -3.3689   16.2925 H   0  0  0  0  0  0  0  0  0  0  0  0
   15.7864   -2.6587   14.9581 H   0  0  0  0  0  0  0  0  0  0  0  0
   15.6008   -4.2383   15.7076 H   0  0  0  0  0  0  0  0  0  0  0  0
   14.6411   -2.0489   17.2553 H   0  0  0  0  0  0  0  0  0  0  0  0
   11.9804   -3.8736   15.9424 H   0  0  0  0  0  0  0  0  0  0  0  0
   10.4098   -2.7642   14.3954 H   0  0  0  0  0  0  0  0  0  0  0  0
   14.8590    1.8619   14.3576 H   0  0  0  0  0  0  0  0  0  0  0  0
   15.2929   -0.1777   16.1251 H   0  0  0  0  0  0  0  0  0  0  0  0
   17.1564   -0.8122   16.2137 H   0  0  0  0  0  0  0  0  0  0  0  0
   18.2382   -1.3628   17.4841 H   0  0  0  0  0  0  0  0  0  0  0  0
  1  2  1  0
  2  3  1  0
  2  4  1  0
  4  5  1  0
  5  6  1  0
  6  7  1  0
  7  8  1  0
  8  9  1  0
  9 10  1  0
 10 11  2  0
 11 12  1  0
 12 13  2  0
 13 14  1  0
 14 15  2  0
 15 16  1  0
 16 17  2  0
 17 18  1  0
  7 19  1  0
 19  4  1  0
 18 10  1  0
 18 14  1  0
  1 20  1  0
  1 21  1  0
  1 22  1  0
  2 23  1  0
  3 24  1  0
  3 25  1  0
  3 26  1  0
  5 27  1  0
  5 28  1  0
  6 29  1  0
  6 30  1  0
  7 31  1  0
  8 32  1  0
  8 33  1  0
  9 34  1  0
 11 35  1  0
 12 36  1  0
 16 37  1  0
 17 38  1  0
 19 39  1  0
 19 40  1  0
M  END
>  <Energy>  (943) 
66.320783186769305

>  <compound_id>  (943) 
8790

>  <target_id>  (943) 
1

>  <reference_id>  (943) 
124

>  <inspiration_ids>  (943) 
[124, 106]

>  <energy_score>  (943) 
-24.648649061620375

>  <distance_score>  (943) 
2.29405472464459

>  <path>  (943) 
/opt/xchem-fragalysis-2/maxwin/BulkDock/SCRATCH/511014/C8790-P124/C8790-P124.minimised.mol

>  <scratch_subdir>  (943) 
/opt/xchem-fragalysis-2/maxwin/BulkDock/SCRATCH/511014/C8790-P124

>  <fragmenstein_runtime>  (943) 
2.3454296588897705

>  <fragmenstein_outcome>  (943) 
too moved

>  <fragmenstein_mode>  (943) 
expansion

>  <fragmenstein_error>  (943) 


$$$$
C8790-P106
     RDKit          3D

 40 42  0  0  0  0  0  0  0  0999 V2000
   16.4367    1.5340   18.3017 C   0  0  0  0  0  0  0  0  0  0  0  0
   16.4445    0.0694   18.7760 C   0  0  0  0  0  0  0  0  0  0  0  0
   15.4142   -0.0732   19.9038 C   0  0  0  0  0  0  0  0  0  0  0  0
   16.1632   -0.9360   17.7354 N   0  0  0  0  0  0  0  0  0  0  0  0
   16.5196   -2.3107   18.1331 C   0  0  0  0  0  0  0  0  0  0  0  0
   16.6819   -3.0832   16.8190 C   0  0  0  0  0  0  0  0  0  0  0  0
   16.4834   -2.0407   15.7197 C   0  0  0  0  0  0  0  0  0  0  0  0
   15.0744   -2.0491   15.0983 C   0  0  0  0  0  0  0  0  0  0  0  0
   13.9969   -2.3197   16.0687 N   0  0  0  0  0  0  0  0  0  0  0  0
   12.7481   -1.7511   15.8282 C   0  0  0  0  0  0  0  0  0  0  0  0
   11.6978   -2.4411   15.3654 C   0  0  0  0  0  0  0  0  0  0  0  0
   10.4473   -1.6603   15.2130 C   0  0  0  0  0  0  0  0  0  0  0  0
   10.2675   -0.4027   15.4725 N   0  0  0  0  0  0  0  0  0  0  0  0
   11.3804    0.2874   15.8294 C   0  0  0  0  0  0  0  0  0  0  0  0
   11.5082    1.5774   16.0661 N   0  0  0  0  0  0  0  0  0  0  0  0
   12.7914    1.7608   16.4910 C   0  0  0  0  0  0  0  0  0  0  0  0
   13.4572    0.5695   16.4969 C   0  0  0  0  0  0  0  0  0  0  0  0
   12.5766   -0.3759   16.0554 N   0  0  0  0  0  0  0  0  0  0  0  0
   16.8208   -0.7384   16.4440 C   0  0  0  0  0  0  0  0  0  0  0  0
   17.1573    1.7041   17.4959 H   0  0  0  0  0  0  0  0  0  0  0  0
   15.4524    1.8652   17.9679 H   0  0  0  0  0  0  0  0  0  0  0  0
   16.7297    2.1931   19.1277 H   0  0  0  0  0  0  0  0  0  0  0  0
   17.4446   -0.1131   19.1914 H   0  0  0  0  0  0  0  0  0  0  0  0
   15.4668   -1.0582   20.3789 H   0  0  0  0  0  0  0  0  0  0  0  0
   15.5937    0.6701   20.6887 H   0  0  0  0  0  0  0  0  0  0  0  0
   14.3929    0.0713   19.5345 H   0  0  0  0  0  0  0  0  0  0  0  0
   15.7350   -2.7594   18.7508 H   0  0  0  0  0  0  0  0  0  0  0  0
   17.4626   -2.3480   18.6921 H   0  0  0  0  0  0  0  0  0  0  0  0
   15.9908   -3.9287   16.7410 H   0  0  0  0  0  0  0  0  0  0  0  0
   17.6995   -3.4890   16.7632 H   0  0  0  0  0  0  0  0  0  0  0  0
   17.2052   -2.1982   14.9088 H   0  0  0  0  0  0  0  0  0  0  0  0
   14.9088   -1.1010   14.5711 H   0  0  0  0  0  0  0  0  0  0  0  0
   15.0581   -2.8179   14.3285 H   0  0  0  0  0  0  0  0  0  0  0  0
   14.3346   -1.9430   16.9657 H   0  0  0  0  0  0  0  0  0  0  0  0
   11.7063   -3.4971   15.1478 H   0  0  0  0  0  0  0  0  0  0  0  0
    9.5751   -2.2520   14.8964 H   0  0  0  0  0  0  0  0  0  0  0  0
   13.1565    2.7398   16.7733 H   0  0  0  0  0  0  0  0  0  0  0  0
   14.4602    0.3324   16.7555 H   0  0  0  0  0  0  0  0  0  0  0  0
   16.4628    0.1347   15.8913 H   0  0  0  0  0  0  0  0  0  0  0  0
   17.9078   -0.6425   16.5676 H   0  0  0  0  0  0  0  0  0  0  0  0
  1  2  1  0
  2  3  1  0
  2  4  1  0
  4  5  1  0
  5  6  1  0
  6  7  1  0
  7  8  1  0
  8  9  1  0
  9 10  1  0
 10 11  2  0
 11 12  1  0
 12 13  2  0
 13 14  1  0
 14 15  2  0
 15 16  1  0
 16 17  2  0
 17 18  1  0
  7 19  1  0
 19  4  1  0
 18 10  1  0
 18 14  1  0
  1 20  1  0
  1 21  1  0
  1 22  1  0
  2 23  1  0
  3 24  1  0
  3 25  1  0
  3 26  1  0
  5 27  1  0
  5 28  1  0
  6 29  1  0
  6 30  1  0
  7 31  1  0
  8 32  1  0
  8 33  1  0
  9 34  1  0
 11 35  1  0
 12 36  1  0
 16 37  1  0
 17 38  1  0
 19 39  1  0
 19 40  1  0
M  END
>  <Energy>  (944) 
63.518530898656003

>  <compound_id>  (944) 
8790

>  <target_id>  (944) 
1

>  <reference_id>  (944) 
106

>  <inspiration_ids>  (944) 
[124, 106]

>  <energy_score>  (944) 
-27.45090134973418

>  <distance_score>  (944) 
1.7713949502035666

>  <path>  (944) 
/opt/xchem-fragalysis-2/maxwin/BulkDock/SCRATCH/511014/C8790-P106/C8790-P106.minimised.mol

>  <scratch_subdir>  (944) 
/opt/xchem-fragalysis-2/maxwin/BulkDock/SCRATCH/511014/C8790-P106

>  <fragmenstein_runtime>  (944) 
2.2592978477478027

>  <fragmenstein_outcome>  (944) 
too moved

>  <fragmenstein_mode>  (944) 
expansion

>  <fragmenstein_error>  (944) 


$$$$
C8788-P124
     RDKit          3D

 41 44  0  0  0  0  0  0  0  0999 V2000
   14.7289    0.0370   13.6710 O   0  0  0  0  0  0  0  0  0  0  0  0
   14.9046   -1.0535   14.2154 C   0  0  0  0  0  0  0  0  0  0  0  0
   16.2322   -1.8012   14.0573 C   0  0  0  0  0  0  0  0  0  0  0  0
   16.7924   -2.5176   15.2677 C   0  0  0  0  0  0  0  0  0  0  0  0
   18.0833   -3.2706   14.9313 C   0  0  0  0  0  0  0  0  0  0  0  0
   18.6774   -3.4725   16.3044 C   0  0  0  0  0  0  0  0  0  0  0  0
   18.4509   -2.1346   16.9696 C   0  0  0  0  0  0  0  0  0  0  0  0
   17.1720   -1.6786   16.4346 N   0  0  0  0  0  0  0  0  0  0  0  0
   16.6591   -0.4469   16.8504 C   0  0  0  0  0  0  0  0  0  0  0  0
   16.6983    0.6805   16.1177 C   0  0  0  0  0  0  0  0  0  0  0  0
   16.0945    1.8943   16.7241 C   0  0  0  0  0  0  0  0  0  0  0  0
   15.5704    1.9888   17.9051 N   0  0  0  0  0  0  0  0  0  0  0  0
   15.5665    0.8443   18.6444 C   0  0  0  0  0  0  0  0  0  0  0  0
   15.0765    0.6567   19.8534 N   0  0  0  0  0  0  0  0  0  0  0  0
   15.2836   -0.6609   20.1543 C   0  0  0  0  0  0  0  0  0  0  0  0
   15.9106   -1.3012   19.1162 C   0  0  0  0  0  0  0  0  0  0  0  0
   16.0961   -0.3440   18.1422 N   0  0  0  0  0  0  0  0  0  0  0  0
   13.7542   -1.7039   14.8930 C   0  0  0  0  0  0  0  0  0  0  0  0
   12.5470   -1.8065   14.2157 C   0  0  0  0  0  0  0  0  0  0  0  0
   11.5484   -2.6189   14.7323 C   0  0  0  0  0  0  0  0  0  0  0  0
   11.7507   -3.3157   15.9101 C   0  0  0  0  0  0  0  0  0  0  0  0
   12.8998   -3.1333   16.6416 C   0  0  0  0  0  0  0  0  0  0  0  0
   13.8819   -2.2998   16.1433 C   0  0  0  0  0  0  0  0  0  0  0  0
   16.9672   -1.0731   13.6914 H   0  0  0  0  0  0  0  0  0  0  0  0
   16.0821   -2.5177   13.2398 H   0  0  0  0  0  0  0  0  0  0  0  0
   16.0960   -3.2907   15.6067 H   0  0  0  0  0  0  0  0  0  0  0  0
   17.8963   -4.2145   14.4113 H   0  0  0  0  0  0  0  0  0  0  0  0
   18.7527   -2.6604   14.3126 H   0  0  0  0  0  0  0  0  0  0  0  0
   18.1386   -4.2640   16.8401 H   0  0  0  0  0  0  0  0  0  0  0  0
   19.7355   -3.7471   16.2701 H   0  0  0  0  0  0  0  0  0  0  0  0
   19.2440   -1.4302   16.6901 H   0  0  0  0  0  0  0  0  0  0  0  0
   18.4471   -2.2345   18.0592 H   0  0  0  0  0  0  0  0  0  0  0  0
   17.1261    0.7632   15.1301 H   0  0  0  0  0  0  0  0  0  0  0  0
   16.1126    2.7905   16.0813 H   0  0  0  0  0  0  0  0  0  0  0  0
   14.9569   -1.0793   21.0991 H   0  0  0  0  0  0  0  0  0  0  0  0
   16.2197   -2.3258   18.9795 H   0  0  0  0  0  0  0  0  0  0  0  0
   12.4007   -1.2991   13.2679 H   0  0  0  0  0  0  0  0  0  0  0  0
   10.6229   -2.7527   14.1909 H   0  0  0  0  0  0  0  0  0  0  0  0
   11.0143   -4.0289   16.2471 H   0  0  0  0  0  0  0  0  0  0  0  0
   13.0393   -3.6575   17.5835 H   0  0  0  0  0  0  0  0  0  0  0  0
   14.7551   -2.1833   16.7578 H   0  0  0  0  0  0  0  0  0  0  0  0
  1  2  2  0
  2  3  1  0
  3  4  1  0
  4  5  1  0
  5  6  1  0
  6  7  1  0
  7  8  1  0
  8  9  1  0
  9 10  2  0
 10 11  1  0
 11 12  2  0
 12 13  1  0
 13 14  2  0
 14 15  1  0
 15 16  2  0
 16 17  1  0
  2 18  1  0
 18 19  2  0
 19 20  1  0
 20 21  2  0
 21 22  1  0
 22 23  2  0
  8  4  1  0
 17  9  1  0
 23 18  1  0
 17 13  1  0
  3 24  1  0
  3 25  1  0
  4 26  1  0
  5 27  1  0
  5 28  1  0
  6 29  1  0
  6 30  1  0
  7 31  1  0
  7 32  1  0
 10 33  1  0
 11 34  1  0
 15 35  1  0
 16 36  1  0
 19 37  1  0
 20 38  1  0
 21 39  1  0
 22 40  1  0
 23 41  1  0
M  END
>  <Energy>  (945) 
106.91180299746655

>  <compound_id>  (945) 
8788

>  <target_id>  (945) 
1

>  <reference_id>  (945) 
124

>  <inspiration_ids>  (945) 
[124, 106]

>  <energy_score>  (945) 
-22.283074173209826

>  <distance_score>  (945) 
2.645523749637479

>  <path>  (945) 
/opt/xchem-fragalysis-2/maxwin/BulkDock/SCRATCH/511014/C8788-P124/C8788-P124.minimised.mol

>  <scratch_subdir>  (945) 
/opt/xchem-fragalysis-2/maxwin/BulkDock/SCRATCH/511014/C8788-P124

>  <fragmenstein_runtime>  (945) 
86.58355641365051

>  <fragmenstein_outcome>  (945) 
too moved

>  <fragmenstein_mode>  (945) 
expansion

>  <fragmenstein_error>  (945) 


$$$$
C8788-P106
     RDKit          3D

 41 44  0  0  0  0  0  0  0  0999 V2000
   15.3597   -1.5763   13.7820 O   0  0  0  0  0  0  0  0  0  0  0  0
   14.8857   -1.9964   14.8337 C   0  0  0  0  0  0  0  0  0  0  0  0
   15.5547   -3.0258   15.7324 C   0  0  0  0  0  0  0  0  0  0  0  0
   16.9359   -2.6811   16.2779 C   0  0  0  0  0  0  0  0  0  0  0  0
   18.0683   -3.2386   15.4117 C   0  0  0  0  0  0  0  0  0  0  0  0
   18.2710   -2.1620   14.3763 C   0  0  0  0  0  0  0  0  0  0  0  0
   17.9832   -0.8771   15.1248 C   0  0  0  0  0  0  0  0  0  0  0  0
   17.1890   -1.2385   16.3221 N   0  0  0  0  0  0  0  0  0  0  0  0
   16.6103   -0.2449   17.1443 C   0  0  0  0  0  0  0  0  0  0  0  0
   16.7659    1.0643   16.8358 C   0  0  0  0  0  0  0  0  0  0  0  0
   16.0790    2.0738   17.6650 C   0  0  0  0  0  0  0  0  0  0  0  0
   15.3335    1.8349   18.6882 N   0  0  0  0  0  0  0  0  0  0  0  0
   15.2176    0.5246   19.0375 C   0  0  0  0  0  0  0  0  0  0  0  0
   14.5511    0.0454   20.0648 N   0  0  0  0  0  0  0  0  0  0  0  0
   14.7674   -1.2967   20.0667 C   0  0  0  0  0  0  0  0  0  0  0  0
   15.5528   -1.6621   19.0031 C   0  0  0  0  0  0  0  0  0  0  0  0
   15.8399   -0.5077   18.3091 N   0  0  0  0  0  0  0  0  0  0  0  0
   13.5504   -1.4943   15.2212 C   0  0  0  0  0  0  0  0  0  0  0  0
   12.4740   -2.3757   15.2870 C   0  0  0  0  0  0  0  0  0  0  0  0
   11.1995   -1.8651   15.4507 C   0  0  0  0  0  0  0  0  0  0  0  0
   11.0116   -0.4958   15.6254 C   0  0  0  0  0  0  0  0  0  0  0  0
   12.0952    0.3777   15.6164 C   0  0  0  0  0  0  0  0  0  0  0  0
   13.3699   -0.1181   15.3854 C   0  0  0  0  0  0  0  0  0  0  0  0
   15.5902   -3.9863   15.2167 H   0  0  0  0  0  0  0  0  0  0  0  0
   14.8904   -3.1886   16.5903 H   0  0  0  0  0  0  0  0  0  0  0  0
   17.0793   -3.1502   17.2531 H   0  0  0  0  0  0  0  0  0  0  0  0
   18.9805   -3.3382   16.0141 H   0  0  0  0  0  0  0  0  0  0  0  0
   17.8522   -4.2170   14.9727 H   0  0  0  0  0  0  0  0  0  0  0  0
   17.5940   -2.3030   13.5299 H   0  0  0  0  0  0  0  0  0  0  0  0
   19.2859   -2.1733   13.9657 H   0  0  0  0  0  0  0  0  0  0  0  0
   17.4586   -0.1752   14.4676 H   0  0  0  0  0  0  0  0  0  0  0  0
   18.9246   -0.4153   15.4458 H   0  0  0  0  0  0  0  0  0  0  0  0
   17.3263    1.4455   15.9958 H   0  0  0  0  0  0  0  0  0  0  0  0
   16.2225    3.1190   17.3439 H   0  0  0  0  0  0  0  0  0  0  0  0
   14.3446   -1.9320   20.8364 H   0  0  0  0  0  0  0  0  0  0  0  0
   15.9264   -2.6309   18.7379 H   0  0  0  0  0  0  0  0  0  0  0  0
   12.5966   -3.4396   15.1395 H   0  0  0  0  0  0  0  0  0  0  0  0
   10.3459   -2.5263   15.3605 H   0  0  0  0  0  0  0  0  0  0  0  0
   10.0038   -0.0962   15.7084 H   0  0  0  0  0  0  0  0  0  0  0  0
   11.9391    1.4471   15.7349 H   0  0  0  0  0  0  0  0  0  0  0  0
   14.2107    0.5623   15.2951 H   0  0  0  0  0  0  0  0  0  0  0  0
  1  2  2  0
  2  3  1  0
  3  4  1  0
  4  5  1  0
  5  6  1  0
  6  7  1  0
  7  8  1  0
  8  9  1  0
  9 10  2  0
 10 11  1  0
 11 12  2  0
 12 13  1  0
 13 14  2  0
 14 15  1  0
 15 16  2  0
 16 17  1  0
  2 18  1  0
 18 19  2  0
 19 20  1  0
 20 21  2  0
 21 22  1  0
 22 23  2  0
  8  4  1  0
 17  9  1  0
 23 18  1  0
 17 13  1  0
  3 24  1  0
  3 25  1  0
  4 26  1  0
  5 27  1  0
  5 28  1  0
  6 29  1  0
  6 30  1  0
  7 31  1  0
  7 32  1  0
 10 33  1  0
 11 34  1  0
 15 35  1  0
 16 36  1  0
 19 37  1  0
 20 38  1  0
 21 39  1  0
 22 40  1  0
 23 41  1  0
M  END
>  <Energy>  (946) 
101.27985085932247

>  <compound_id>  (946) 
8788

>  <target_id>  (946) 
1

>  <reference_id>  (946) 
106

>  <inspiration_ids>  (946) 
[124, 106]

>  <energy_score>  (946) 
-27.915026311355547

>  <distance_score>  (946) 
2.2518380793541297

>  <path>  (946) 
/opt/xchem-fragalysis-2/maxwin/BulkDock/SCRATCH/511014/C8788-P106/C8788-P106.minimised.mol

>  <scratch_subdir>  (946) 
/opt/xchem-fragalysis-2/maxwin/BulkDock/SCRATCH/511014/C8788-P106

>  <fragmenstein_runtime>  (946) 
78.52630972862244

>  <fragmenstein_outcome>  (946) 
too moved

>  <fragmenstein_mode>  (946) 
expansion

>  <fragmenstein_error>  (946) 


$$$$
C8793-P124
     RDKit          3D

 26 28  0  0  0  0  0  0  0  0999 V2000
   18.7271   -1.9108   14.4740 C   0  0  0  0  0  0  0  0  0  0  0  0
   18.6927   -1.3698   15.7319 C   0  0  0  0  0  0  0  0  0  0  0  0
   17.4558   -1.6820   16.2122 N   0  0  0  0  0  0  0  0  0  0  0  0
   16.8160   -1.2459   17.3587 C   0  0  0  0  0  0  0  0  0  0  0  0
   15.5313   -1.5728   17.5452 C   0  0  0  0  0  0  0  0  0  0  0  0
   14.9245   -2.3989   16.4355 C   0  0  0  0  0  0  0  0  0  0  0  0
   13.4316   -2.4829   16.3814 C   0  0  0  0  0  0  0  0  0  0  0  0
   12.6661   -3.7593   16.1523 C   0  0  0  0  0  0  0  0  0  0  0  0
   11.5668   -3.3602   15.1587 C   0  0  0  0  0  0  0  0  0  0  0  0
   11.5530   -1.9028   15.1605 N   0  0  0  0  0  0  0  0  0  0  0  0
   12.9758   -1.5912   15.2165 C   0  0  0  0  0  0  0  0  0  0  0  0
   15.5668   -2.9062   15.4372 N   0  0  0  0  0  0  0  0  0  0  0  0
   16.8389   -2.4904   15.2720 C   0  0  0  0  0  0  0  0  0  0  0  0
   17.5909   -2.6137   14.2055 N   0  0  0  0  0  0  0  0  0  0  0  0
   19.5280   -1.8468   13.7484 H   0  0  0  0  0  0  0  0  0  0  0  0
   19.3980   -0.7633   16.2804 H   0  0  0  0  0  0  0  0  0  0  0  0
   17.3812   -0.6325   18.0482 H   0  0  0  0  0  0  0  0  0  0  0  0
   14.9434   -1.2683   18.3985 H   0  0  0  0  0  0  0  0  0  0  0  0
   13.1128   -2.2070   17.3739 H   0  0  0  0  0  0  0  0  0  0  0  0
   13.3147   -4.5698   15.8412 H   0  0  0  0  0  0  0  0  0  0  0  0
   12.2089   -4.0969   17.0880 H   0  0  0  0  0  0  0  0  0  0  0  0
   10.5941   -3.7522   15.4336 H   0  0  0  0  0  0  0  0  0  0  0  0
   11.7873   -3.6849   14.1394 H   0  0  0  0  0  0  0  0  0  0  0  0
   11.1397   -1.5645   14.2822 H   0  0  0  0  0  0  0  0  0  0  0  0
   13.1899   -0.5296   15.3586 H   0  0  0  0  0  0  0  0  0  0  0  0
   13.4587   -1.8688   14.2689 H   0  0  0  0  0  0  0  0  0  0  0  0
  1  2  2  0
  2  3  1  0
  3  4  1  0
  4  5  2  0
  5  6  1  0
  6  7  1  0
  7  8  1  0
  8  9  1  0
  9 10  1  0
 10 11  1  0
  6 12  2  0
 12 13  1  0
 13 14  2  0
 14  1  1  0
 13  3  1  0
 11  7  1  0
  1 15  1  0
  2 16  1  0
  4 17  1  0
  5 18  1  0
  7 19  1  0
  8 20  1  0
  8 21  1  0
  9 22  1  0
  9 23  1  0
 10 24  1  0
 11 25  1  0
 11 26  1  0
M  END
>  <Energy>  (947) 
41.319997835246816

>  <compound_id>  (947) 
8793

>  <target_id>  (947) 
1

>  <reference_id>  (947) 
124

>  <inspiration_ids>  (947) 
[124, 106]

>  <energy_score>  (947) 
-16.55760026210379

>  <distance_score>  (947) 
2.0458377583161775

>  <path>  (947) 
/opt/xchem-fragalysis-2/maxwin/BulkDock/SCRATCH/511014/C8793-P124/C8793-P124.minimised.mol

>  <scratch_subdir>  (947) 
/opt/xchem-fragalysis-2/maxwin/BulkDock/SCRATCH/511014/C8793-P124

>  <fragmenstein_runtime>  (947) 
7.935992240905762

>  <fragmenstein_outcome>  (947) 
too moved

>  <fragmenstein_mode>  (947) 
expansion

>  <fragmenstein_error>  (947) 


$$$$
C8793-P106
     RDKit          3D

 26 28  0  0  0  0  0  0  0  0999 V2000
   18.2872   -1.8039   14.4405 C   0  0  0  0  0  0  0  0  0  0  0  0
   18.3605   -1.7513   15.8096 C   0  0  0  0  0  0  0  0  0  0  0  0
   17.0715   -1.5722   16.2207 N   0  0  0  0  0  0  0  0  0  0  0  0
   16.5548   -1.3261   17.4824 C   0  0  0  0  0  0  0  0  0  0  0  0
   15.2317   -1.1587   17.6271 C   0  0  0  0  0  0  0  0  0  0  0  0
   14.4320   -1.3439   16.3663 C   0  0  0  0  0  0  0  0  0  0  0  0
   12.9344   -1.4329   16.4843 C   0  0  0  0  0  0  0  0  0  0  0  0
   12.4839   -2.8729   16.2206 C   0  0  0  0  0  0  0  0  0  0  0  0
   11.4262   -2.7455   15.1416 C   0  0  0  0  0  0  0  0  0  0  0  0
   10.9174   -1.3795   15.3220 N   0  0  0  0  0  0  0  0  0  0  0  0
   12.1481   -0.5943   15.4851 C   0  0  0  0  0  0  0  0  0  0  0  0
   14.9307   -1.5259   15.1857 N   0  0  0  0  0  0  0  0  0  0  0  0
   16.2725   -1.6134   15.0907 C   0  0  0  0  0  0  0  0  0  0  0  0
   16.9987   -1.7256   14.0055 N   0  0  0  0  0  0  0  0  0  0  0  0
   19.1060   -1.9103   13.7406 H   0  0  0  0  0  0  0  0  0  0  0  0
   19.1937   -1.7843   16.4954 H   0  0  0  0  0  0  0  0  0  0  0  0
   17.2536   -1.2652   18.3064 H   0  0  0  0  0  0  0  0  0  0  0  0
   14.7412   -0.9677   18.5705 H   0  0  0  0  0  0  0  0  0  0  0  0
   12.6568   -1.1253   17.4835 H   0  0  0  0  0  0  0  0  0  0  0  0
   13.2914   -3.5407   15.9069 H   0  0  0  0  0  0  0  0  0  0  0  0
   12.0705   -3.3059   17.1325 H   0  0  0  0  0  0  0  0  0  0  0  0
   10.6395   -3.4932   15.2395 H   0  0  0  0  0  0  0  0  0  0  0  0
   11.8729   -2.8548   14.1457 H   0  0  0  0  0  0  0  0  0  0  0  0
   10.4328   -1.1172   14.4499 H   0  0  0  0  0  0  0  0  0  0  0  0
   12.6603   -0.4692   14.5241 H   0  0  0  0  0  0  0  0  0  0  0  0
   11.9254    0.4017   15.8797 H   0  0  0  0  0  0  0  0  0  0  0  0
  1  2  2  0
  2  3  1  0
  3  4  1  0
  4  5  2  0
  5  6  1  0
  6  7  1  0
  7  8  1  0
  8  9  1  0
  9 10  1  0
 10 11  1  0
  6 12  2  0
 12 13  1  0
 13 14  2  0
 14  1  1  0
 13  3  1  0
 11  7  1  0
  1 15  1  0
  2 16  1  0
  4 17  1  0
  5 18  1  0
  7 19  1  0
  8 20  1  0
  8 21  1  0
  9 22  1  0
  9 23  1  0
 10 24  1  0
 11 25  1  0
 11 26  1  0
M  END
>  <Energy>  (948) 
31.967199252026965

>  <compound_id>  (948) 
8793

>  <target_id>  (948) 
1

>  <reference_id>  (948) 
106

>  <inspiration_ids>  (948) 
[124, 106]

>  <energy_score>  (948) 
-25.910398845323698

>  <distance_score>  (948) 
1.7433035569014146

>  <path>  (948) 
/opt/xchem-fragalysis-2/maxwin/BulkDock/SCRATCH/511014/C8793-P106/C8793-P106.minimised.mol

>  <scratch_subdir>  (948) 
/opt/xchem-fragalysis-2/maxwin/BulkDock/SCRATCH/511014/C8793-P106

>  <fragmenstein_runtime>  (948) 
8.208156108856201

>  <fragmenstein_outcome>  (948) 
too moved

>  <fragmenstein_mode>  (948) 
expansion

>  <fragmenstein_error>  (948) 


$$$$
C8795-P124
     RDKit          3D

 26 28  0  0  0  0  0  0  0  0999 V2000
   17.4244   -4.2929   16.2132 C   0  0  0  0  0  0  0  0  0  0  0  0
   17.2979   -3.7765   17.4772 C   0  0  0  0  0  0  0  0  0  0  0  0
   16.7257   -2.5559   17.3033 N   0  0  0  0  0  0  0  0  0  0  0  0
   16.4228   -1.5808   18.2322 C   0  0  0  0  0  0  0  0  0  0  0  0
   15.8153   -0.4630   17.8204 C   0  0  0  0  0  0  0  0  0  0  0  0
   15.4414   -0.4128   16.3637 C   0  0  0  0  0  0  0  0  0  0  0  0
   14.6423    0.6139   15.9088 N   0  0  0  0  0  0  0  0  0  0  0  0
   13.9393    0.4593   14.6297 C   0  0  0  0  0  0  0  0  0  0  0  0
   13.6553    1.8761   14.1642 C   0  0  0  0  0  0  0  0  0  0  0  0
   13.8218    2.7426   15.3995 C   0  0  0  0  0  0  0  0  0  0  0  0
   14.8828    2.0127   16.2040 C   0  0  0  0  0  0  0  0  0  0  0  0
   15.7905   -1.3381   15.4993 N   0  0  0  0  0  0  0  0  0  0  0  0
   16.4704   -2.4135   15.9524 C   0  0  0  0  0  0  0  0  0  0  0  0
   16.9369   -3.4396   15.2779 N   0  0  0  0  0  0  0  0  0  0  0  0
   17.8476   -5.2484   15.9292 H   0  0  0  0  0  0  0  0  0  0  0  0
   17.5765   -4.1617   18.4467 H   0  0  0  0  0  0  0  0  0  0  0  0
   16.6947   -1.7644   19.2629 H   0  0  0  0  0  0  0  0  0  0  0  0
   15.5311    0.3411   18.4812 H   0  0  0  0  0  0  0  0  0  0  0  0
   14.5442   -0.0435   13.8662 H   0  0  0  0  0  0  0  0  0  0  0  0
   13.0288   -0.1286   14.7661 H   0  0  0  0  0  0  0  0  0  0  0  0
   12.6769    1.9845   13.6883 H   0  0  0  0  0  0  0  0  0  0  0  0
   14.4052    2.1687   13.4179 H   0  0  0  0  0  0  0  0  0  0  0  0
   14.1288    3.7629   15.1493 H   0  0  0  0  0  0  0  0  0  0  0  0
   12.8910    2.8192   15.9657 H   0  0  0  0  0  0  0  0  0  0  0  0
   15.8850    2.2997   15.8644 H   0  0  0  0  0  0  0  0  0  0  0  0
   14.7973    2.2427   17.2700 H   0  0  0  0  0  0  0  0  0  0  0  0
  1  2  2  0
  2  3  1  0
  3  4  1  0
  4  5  2  0
  5  6  1  0
  6  7  1  0
  7  8  1  0
  8  9  1  0
  9 10  1  0
 10 11  1  0
  6 12  2  0
 12 13  1  0
 13 14  2  0
 14  1  1  0
 13  3  1  0
 11  7  1  0
  1 15  1  0
  2 16  1  0
  4 17  1  0
  5 18  1  0
  8 19  1  0
  8 20  1  0
  9 21  1  0
  9 22  1  0
 10 23  1  0
 10 24  1  0
 11 25  1  0
 11 26  1  0
M  END
>  <Energy>  (949) 
0.13936849725299849

>  <compound_id>  (949) 
8795

>  <target_id>  (949) 
1

>  <reference_id>  (949) 
124

>  <inspiration_ids>  (949) 
[124, 106]

>  <energy_score>  (949) 
-15.107740502918617

>  <distance_score>  (949) 
3.0683073640051517

>  <path>  (949) 
/opt/xchem-fragalysis-2/maxwin/BulkDock/SCRATCH/511014/C8795-P124/C8795-P124.minimised.mol

>  <scratch_subdir>  (949) 
/opt/xchem-fragalysis-2/maxwin/BulkDock/SCRATCH/511014/C8795-P124

>  <fragmenstein_runtime>  (949) 
8.737729549407959

>  <fragmenstein_outcome>  (949) 
too moved

>  <fragmenstein_mode>  (949) 
expansion

>  <fragmenstein_error>  (949) 


$$$$
C8795-P106
     RDKit          3D

 26 28  0  0  0  0  0  0  0  0999 V2000
   17.5223   -3.9152   15.3987 C   0  0  0  0  0  0  0  0  0  0  0  0
   17.1912   -3.8642   16.7283 C   0  0  0  0  0  0  0  0  0  0  0  0
   16.6477   -2.6305   16.9067 N   0  0  0  0  0  0  0  0  0  0  0  0
   16.1837   -2.0298   18.0572 C   0  0  0  0  0  0  0  0  0  0  0  0
   15.5966   -0.8344   17.9594 C   0  0  0  0  0  0  0  0  0  0  0  0
   15.4034   -0.2952   16.5616 C   0  0  0  0  0  0  0  0  0  0  0  0
   14.5105    0.7591   16.4101 N   0  0  0  0  0  0  0  0  0  0  0  0
   13.1466    0.5128   16.8903 C   0  0  0  0  0  0  0  0  0  0  0  0
   12.2523    0.6916   15.6774 C   0  0  0  0  0  0  0  0  0  0  0  0
   12.9456    1.8351   14.9738 C   0  0  0  0  0  0  0  0  0  0  0  0
   14.4185    1.4681   15.1249 C   0  0  0  0  0  0  0  0  0  0  0  0
   15.9757   -0.8248   15.5066 N   0  0  0  0  0  0  0  0  0  0  0  0
   16.6168   -2.0096   15.6687 C   0  0  0  0  0  0  0  0  0  0  0  0
   17.2023   -2.7600   14.7613 N   0  0  0  0  0  0  0  0  0  0  0  0
   17.9832   -4.7366   14.8657 H   0  0  0  0  0  0  0  0  0  0  0  0
   17.3035   -4.5770   17.5312 H   0  0  0  0  0  0  0  0  0  0  0  0
   16.3183   -2.5529   18.9942 H   0  0  0  0  0  0  0  0  0  0  0  0
   15.2087   -0.2789   18.8010 H   0  0  0  0  0  0  0  0  0  0  0  0
   13.0050   -0.4814   17.3232 H   0  0  0  0  0  0  0  0  0  0  0  0
   12.9371    1.2725   17.6489 H   0  0  0  0  0  0  0  0  0  0  0  0
   11.2164    0.9197   15.9409 H   0  0  0  0  0  0  0  0  0  0  0  0
   12.2643   -0.2087   15.0516 H   0  0  0  0  0  0  0  0  0  0  0  0
   12.6457    1.9372   13.9271 H   0  0  0  0  0  0  0  0  0  0  0  0
   12.7355    2.7825   15.4850 H   0  0  0  0  0  0  0  0  0  0  0  0
   14.7109    0.8356   14.2790 H   0  0  0  0  0  0  0  0  0  0  0  0
   15.0556    2.3579   15.1263 H   0  0  0  0  0  0  0  0  0  0  0  0
  1  2  2  0
  2  3  1  0
  3  4  1  0
  4  5  2  0
  5  6  1  0
  6  7  1  0
  7  8  1  0
  8  9  1  0
  9 10  1  0
 10 11  1  0
  6 12  2  0
 12 13  1  0
 13 14  2  0
 14  1  1  0
 13  3  1  0
 11  7  1  0
  1 15  1  0
  2 16  1  0
  4 17  1  0
  5 18  1  0
  8 19  1  0
  8 20  1  0
  9 21  1  0
  9 22  1  0
 10 23  1  0
 10 24  1  0
 11 25  1  0
 11 26  1  0
M  END
>  <Energy>  (950) 
2.6666941490349165

>  <compound_id>  (950) 
8795

>  <target_id>  (950) 
1

>  <reference_id>  (950) 
106

>  <inspiration_ids>  (950) 
[124, 106]

>  <energy_score>  (950) 
-12.58041485113661

>  <distance_score>  (950) 
2.436655812523736

>  <path>  (950) 
/opt/xchem-fragalysis-2/maxwin/BulkDock/SCRATCH/511014/C8795-P106/C8795-P106.minimised.mol

>  <scratch_subdir>  (950) 
/opt/xchem-fragalysis-2/maxwin/BulkDock/SCRATCH/511014/C8795-P106

>  <fragmenstein_runtime>  (950) 
8.106803894042969

>  <fragmenstein_outcome>  (950) 
too moved

>  <fragmenstein_mode>  (950) 
expansion

>  <fragmenstein_error>  (950) 


$$$$
C8796-P124
     RDKit          3D

 39 41  0  0  0  0  0  0  0  0999 V2000
   13.5412   -4.2285   17.9729 O   0  0  0  0  0  0  0  0  0  0  0  0
   14.4181   -3.5906   17.4797 C   0  0  0  0  0  0  0  0  0  0  0  0
   15.8059   -3.5242   17.7858 N   0  0  0  0  0  0  0  0  0  0  0  0
   16.5706   -4.1322   18.8457 C   0  0  0  0  0  0  0  0  0  0  0  0
   16.6630   -3.3134   20.1681 C   0  0  0  0  0  0  0  0  0  0  0  0
   15.3493   -2.9136   20.8254 C   0  0  0  0  0  0  0  0  0  0  0  0
   15.4436   -1.4414   20.7168 C   0  0  0  0  0  0  0  0  0  0  0  0
   16.6637   -1.3546   19.8388 C   0  0  0  0  0  0  0  0  0  0  0  0
   17.7895   -2.2865   20.2215 N   0  0  0  0  0  0  0  0  0  0  0  0
   18.5136   -1.7536   21.3315 C   0  0  0  0  0  0  0  0  0  0  0  0
   18.3597   -1.9114   22.5160 O   0  0  0  0  0  0  0  0  0  0  0  0
   19.6961   -0.9096   20.8202 C   0  0  0  0  0  0  0  0  0  0  0  0
   20.2169   -0.0643   21.8384 O   0  0  0  0  0  0  0  0  0  0  0  0
   14.0682   -2.5946   16.3681 C   0  0  0  0  0  0  0  0  0  0  0  0
   12.7833   -2.8104   15.6273 C   0  0  0  0  0  0  0  0  0  0  0  0
   12.5292   -1.9111   14.6650 C   0  0  0  0  0  0  0  0  0  0  0  0
   13.4264   -0.8710   14.4567 N   0  0  0  0  0  0  0  0  0  0  0  0
   13.3771    0.1787   13.5842 C   0  0  0  0  0  0  0  0  0  0  0  0
   14.4986    0.9272   13.8482 C   0  0  0  0  0  0  0  0  0  0  0  0
   15.2380    0.3652   14.8557 N   0  0  0  0  0  0  0  0  0  0  0  0
   14.5888   -0.7225   15.2105 C   0  0  0  0  0  0  0  0  0  0  0  0
   14.9131   -1.6194   16.1813 N   0  0  0  0  0  0  0  0  0  0  0  0
   16.2402   -2.8026   17.2059 H   0  0  0  0  0  0  0  0  0  0  0  0
   16.0914   -5.0925   19.0672 H   0  0  0  0  0  0  0  0  0  0  0  0
   17.5727   -4.3310   18.4521 H   0  0  0  0  0  0  0  0  0  0  0  0
   17.0695   -4.0703   20.8599 H   0  0  0  0  0  0  0  0  0  0  0  0
   14.4688   -3.3308   20.3319 H   0  0  0  0  0  0  0  0  0  0  0  0
   15.3133   -3.2190   21.8774 H   0  0  0  0  0  0  0  0  0  0  0  0
   14.5667   -0.9774   20.2586 H   0  0  0  0  0  0  0  0  0  0  0  0
   15.6140   -0.9789   21.6948 H   0  0  0  0  0  0  0  0  0  0  0  0
   17.0519   -0.3302   19.9376 H   0  0  0  0  0  0  0  0  0  0  0  0
   16.4476   -1.4228   18.7680 H   0  0  0  0  0  0  0  0  0  0  0  0
   19.3947   -0.2821   19.9777 H   0  0  0  0  0  0  0  0  0  0  0  0
   20.4902   -1.5889   20.4956 H   0  0  0  0  0  0  0  0  0  0  0  0
   20.0431   -0.5344   22.6789 H   0  0  0  0  0  0  0  0  0  0  0  0
   12.1433   -3.6466   15.8774 H   0  0  0  0  0  0  0  0  0  0  0  0
   11.6429   -1.9386   14.0413 H   0  0  0  0  0  0  0  0  0  0  0  0
   12.5567    0.3243   12.8989 H   0  0  0  0  0  0  0  0  0  0  0  0
   14.8063    1.8503   13.3739 H   0  0  0  0  0  0  0  0  0  0  0  0
  1  2  2  0
  2  3  1  0
  3  4  1  0
  4  5  1  0
  5  6  1  0
  6  7  1  0
  7  8  1  0
  8  9  1  0
  9 10  1  0
 10 11  2  0
 10 12  1  0
 12 13  1  0
  2 14  1  0
 14 15  1  0
 15 16  2  0
 16 17  1  0
 17 18  1  0
 18 19  2  0
 19 20  1  0
 20 21  2  0
 21 22  1  0
  9  5  1  0
 22 14  2  0
 21 17  1  0
  3 23  1  0
  4 24  1  0
  4 25  1  0
  5 26  1  0
  6 27  1  0
  6 28  1  0
  7 29  1  0
  7 30  1  0
  8 31  1  0
  8 32  1  0
 12 33  1  0
 12 34  1  0
 13 35  1  0
 15 36  1  0
 16 37  1  0
 18 38  1  0
 19 39  1  0
M  END
>  <Energy>  (951) 
147.19706300406625

>  <compound_id>  (951) 
8796

>  <target_id>  (951) 
1

>  <reference_id>  (951) 
124

>  <inspiration_ids>  (951) 
[124, 106]

>  <energy_score>  (951) 
17.88974388604234

>  <distance_score>  (951) 
3.974690094766826

>  <path>  (951) 
/opt/xchem-fragalysis-2/maxwin/BulkDock/SCRATCH/511014/C8796-P124/C8796-P124.minimised.mol

>  <scratch_subdir>  (951) 
/opt/xchem-fragalysis-2/maxwin/BulkDock/SCRATCH/511014/C8796-P124

>  <fragmenstein_runtime>  (951) 
4.014468431472778

>  <fragmenstein_outcome>  (951) 
too moved

>  <fragmenstein_mode>  (951) 
expansion

>  <fragmenstein_error>  (951) 


$$$$
C8796-P106
     RDKit          3D

 39 41  0  0  0  0  0  0  0  0999 V2000
   12.9838    0.2498   12.6376 O   0  0  0  0  0  0  0  0  0  0  0  0
   12.5955    0.4356   13.7117 C   0  0  0  0  0  0  0  0  0  0  0  0
   11.9292    1.6601   14.3228 N   0  0  0  0  0  0  0  0  0  0  0  0
   11.6816    2.9543   13.7718 C   0  0  0  0  0  0  0  0  0  0  0  0
   11.8457    4.0095   14.8960 C   0  0  0  0  0  0  0  0  0  0  0  0
   13.1226    3.7630   15.7102 C   0  0  0  0  0  0  0  0  0  0  0  0
   12.7907    4.6322   16.8737 C   0  0  0  0  0  0  0  0  0  0  0  0
   11.3706    5.0132   16.5076 C   0  0  0  0  0  0  0  0  0  0  0  0
   10.6291    3.8935   15.8066 N   0  0  0  0  0  0  0  0  0  0  0  0
    9.1760    4.2615   15.5664 C   0  0  0  0  0  0  0  0  0  0  0  0
    8.6672    4.7960   14.6487 O   0  0  0  0  0  0  0  0  0  0  0  0
    8.3791    3.7522   16.7775 C   0  0  0  0  0  0  0  0  0  0  0  0
    6.9777    3.6396   16.5569 O   0  0  0  0  0  0  0  0  0  0  0  0
   12.7865   -0.5623   14.8416 C   0  0  0  0  0  0  0  0  0  0  0  0
   12.1918   -1.9164   14.7079 C   0  0  0  0  0  0  0  0  0  0  0  0
   12.4856   -2.7456   15.7210 C   0  0  0  0  0  0  0  0  0  0  0  0
   13.2983   -2.2980   16.7563 N   0  0  0  0  0  0  0  0  0  0  0  0
   13.8146   -2.9681   17.8300 C   0  0  0  0  0  0  0  0  0  0  0  0
   14.5415   -2.0324   18.5283 C   0  0  0  0  0  0  0  0  0  0  0  0
   14.4656   -0.8011   17.9261 N   0  0  0  0  0  0  0  0  0  0  0  0
   13.7478   -0.9814   16.8383 C   0  0  0  0  0  0  0  0  0  0  0  0
   13.4513   -0.0935   15.8589 N   0  0  0  0  0  0  0  0  0  0  0  0
   11.6408    1.4494   15.2752 H   0  0  0  0  0  0  0  0  0  0  0  0
   12.4050    3.1239   12.9678 H   0  0  0  0  0  0  0  0  0  0  0  0
   10.6752    2.9602   13.3428 H   0  0  0  0  0  0  0  0  0  0  0  0
   11.8419    4.9675   14.3444 H   0  0  0  0  0  0  0  0  0  0  0  0
   14.0203    4.0833   15.1736 H   0  0  0  0  0  0  0  0  0  0  0  0
   13.2661    2.7358   16.0530 H   0  0  0  0  0  0  0  0  0  0  0  0
   12.8363    4.0689   17.8111 H   0  0  0  0  0  0  0  0  0  0  0  0
   13.4372    5.5099   16.9633 H   0  0  0  0  0  0  0  0  0  0  0  0
   11.2812    5.9721   15.9669 H   0  0  0  0  0  0  0  0  0  0  0  0
   10.8194    5.2099   17.4369 H   0  0  0  0  0  0  0  0  0  0  0  0
    8.5300    4.4479   17.6069 H   0  0  0  0  0  0  0  0  0  0  0  0
    8.7422    2.7586   17.0516 H   0  0  0  0  0  0  0  0  0  0  0  0
    6.7707    4.3145   15.8766 H   0  0  0  0  0  0  0  0  0  0  0  0
   11.6004   -2.1774   13.8423 H   0  0  0  0  0  0  0  0  0  0  0  0
   12.1480   -3.7730   15.7676 H   0  0  0  0  0  0  0  0  0  0  0  0
   13.6235   -4.0178   18.0046 H   0  0  0  0  0  0  0  0  0  0  0  0
   15.0971   -2.1749   19.4467 H   0  0  0  0  0  0  0  0  0  0  0  0
  1  2  2  0
  2  3  1  0
  3  4  1  0
  4  5  1  0
  5  6  1  0
  6  7  1  0
  7  8  1  0
  8  9  1  0
  9 10  1  0
 10 11  2  0
 10 12  1  0
 12 13  1  0
  2 14  1  0
 14 15  1  0
 15 16  2  0
 16 17  1  0
 17 18  1  0
 18 19  2  0
 19 20  1  0
 20 21  2  0
 21 22  1  0
  9  5  1  0
 22 14  2  0
 21 17  1  0
  3 23  1  0
  4 24  1  0
  4 25  1  0
  5 26  1  0
  6 27  1  0
  6 28  1  0
  7 29  1  0
  7 30  1  0
  8 31  1  0
  8 32  1  0
 12 33  1  0
 12 34  1  0
 13 35  1  0
 15 36  1  0
 16 37  1  0
 18 38  1  0
 19 39  1  0
M  END
>  <Energy>  (952) 
169.13988234988793

>  <compound_id>  (952) 
8796

>  <target_id>  (952) 
1

>  <reference_id>  (952) 
106

>  <inspiration_ids>  (952) 
[124, 106]

>  <energy_score>  (952) 
35.541422910307006

>  <distance_score>  (952) 
5.46927730992663

>  <path>  (952) 
/opt/xchem-fragalysis-2/maxwin/BulkDock/SCRATCH/511014/C8796-P106/C8796-P106.minimised.mol

>  <scratch_subdir>  (952) 
/opt/xchem-fragalysis-2/maxwin/BulkDock/SCRATCH/511014/C8796-P106

>  <fragmenstein_runtime>  (952) 
2.321777582168579

>  <fragmenstein_outcome>  (952) 
too moved

>  <fragmenstein_mode>  (952) 
expansion

>  <fragmenstein_error>  (952) 


$$$$
C8797-P124
     RDKit          3D

 42 44  0  0  0  0  0  0  0  0999 V2000
   13.0220    1.4666   13.0507 C   0  0  0  0  0  0  0  0  0  0  0  0
   14.3161    1.8370   13.7035 N   0  0  0  0  0  0  0  0  0  0  0  0
   14.1222    3.0907   12.8867 C   0  0  0  0  0  0  0  0  0  0  0  0
   13.6603    4.3971   13.6716 C   0  0  0  0  0  0  0  0  0  0  0  0
   12.1889    4.7670   13.5854 C   0  0  0  0  0  0  0  0  0  0  0  0
   11.7826    4.4739   14.9810 C   0  0  0  0  0  0  0  0  0  0  0  0
   13.0885    3.9304   15.5112 C   0  0  0  0  0  0  0  0  0  0  0  0
   14.2818    4.7135   15.0269 N   0  0  0  0  0  0  0  0  0  0  0  0
   15.4791    4.2245   15.6436 C   0  0  0  0  0  0  0  0  0  0  0  0
   16.2520    3.3728   15.2871 O   0  0  0  0  0  0  0  0  0  0  0  0
   15.6707    4.8820   17.0182 C   0  0  0  0  0  0  0  0  0  0  0  0
   15.2608    4.0026   18.0611 O   0  0  0  0  0  0  0  0  0  0  0  0
   15.2490    0.7787   13.5676 C   0  0  0  0  0  0  0  0  0  0  0  0
   16.0661    0.5617   12.7156 O   0  0  0  0  0  0  0  0  0  0  0  0
   15.2208   -0.1465   14.7915 C   0  0  0  0  0  0  0  0  0  0  0  0
   15.3223   -1.6109   14.4878 C   0  0  0  0  0  0  0  0  0  0  0  0
   15.3771   -2.4130   15.5603 C   0  0  0  0  0  0  0  0  0  0  0  0
   15.3241   -1.8551   16.8266 N   0  0  0  0  0  0  0  0  0  0  0  0
   15.3588   -2.4576   18.0550 C   0  0  0  0  0  0  0  0  0  0  0  0
   15.2599   -1.4308   18.9632 C   0  0  0  0  0  0  0  0  0  0  0  0
   15.1451   -0.2225   18.3251 N   0  0  0  0  0  0  0  0  0  0  0  0
   15.2057   -0.4837   17.0340 C   0  0  0  0  0  0  0  0  0  0  0  0
   15.1356    0.3793   15.9832 N   0  0  0  0  0  0  0  0  0  0  0  0
   12.1672    2.1187   13.2580 H   0  0  0  0  0  0  0  0  0  0  0  0
   12.7307    0.5136   13.5185 H   0  0  0  0  0  0  0  0  0  0  0  0
   13.1294    1.1865   11.9900 H   0  0  0  0  0  0  0  0  0  0  0  0
   15.1770    3.3149   12.6478 H   0  0  0  0  0  0  0  0  0  0  0  0
   13.7175    3.0510   11.8576 H   0  0  0  0  0  0  0  0  0  0  0  0
   14.1438    5.1737   13.0550 H   0  0  0  0  0  0  0  0  0  0  0  0
   11.6335    4.2039   12.8313 H   0  0  0  0  0  0  0  0  0  0  0  0
   12.0562    5.8335   13.3683 H   0  0  0  0  0  0  0  0  0  0  0  0
   11.4905    5.3908   15.5050 H   0  0  0  0  0  0  0  0  0  0  0  0
   10.9610    3.7584   15.0574 H   0  0  0  0  0  0  0  0  0  0  0  0
   13.2066    2.8477   15.4318 H   0  0  0  0  0  0  0  0  0  0  0  0
   13.0610    4.0747   16.6008 H   0  0  0  0  0  0  0  0  0  0  0  0
   15.0931    5.8080   17.0948 H   0  0  0  0  0  0  0  0  0  0  0  0
   16.7285    5.1295   17.1500 H   0  0  0  0  0  0  0  0  0  0  0  0
   15.6665    3.1343   17.8572 H   0  0  0  0  0  0  0  0  0  0  0  0
   15.3858   -1.9500   13.4623 H   0  0  0  0  0  0  0  0  0  0  0  0
   15.4836   -3.4874   15.4917 H   0  0  0  0  0  0  0  0  0  0  0  0
   15.4542   -3.5262   18.1769 H   0  0  0  0  0  0  0  0  0  0  0  0
   15.2524   -1.4969   20.0446 H   0  0  0  0  0  0  0  0  0  0  0  0
  1  2  1  0
  2  3  1  0
  3  4  1  0
  4  5  1  0
  5  6  1  0
  6  7  1  0
  7  8  1  0
  8  9  1  0
  9 10  2  0
  9 11  1  0
 11 12  1  0
  2 13  1  0
 13 14  2  0
 13 15  1  0
 15 16  1  0
 16 17  2  0
 17 18  1  0
 18 19  1  0
 19 20  2  0
 20 21  1  0
 21 22  2  0
 22 23  1  0
  8  4  1  0
 23 15  2  0
 22 18  1  0
  1 24  1  0
  1 25  1  0
  1 26  1  0
  3 27  1  0
  3 28  1  0
  4 29  1  0
  5 30  1  0
  5 31  1  0
  6 32  1  0
  6 33  1  0
  7 34  1  0
  7 35  1  0
 11 36  1  0
 11 37  1  0
 12 38  1  0
 16 39  1  0
 17 40  1  0
 19 41  1  0
 20 42  1  0
M  END
>  <Energy>  (953) 
238.28860824412607

>  <compound_id>  (953) 
8797

>  <target_id>  (953) 
1

>  <reference_id>  (953) 
124

>  <inspiration_ids>  (953) 
[124, 106]

>  <energy_score>  (953) 
73.91409833804414

>  <distance_score>  (953) 
4.887152735491151

>  <path>  (953) 
/opt/xchem-fragalysis-2/maxwin/BulkDock/SCRATCH/511014/C8797-P124/C8797-P124.minimised.mol

>  <scratch_subdir>  (953) 
/opt/xchem-fragalysis-2/maxwin/BulkDock/SCRATCH/511014/C8797-P124

>  <fragmenstein_runtime>  (953) 
3.446636915206909

>  <fragmenstein_outcome>  (953) 
too moved

>  <fragmenstein_mode>  (953) 
expansion

>  <fragmenstein_error>  (953) 


$$$$
C8797-P106
     RDKit          3D

 42 44  0  0  0  0  0  0  0  0999 V2000
   17.7237   -1.6365   16.5358 C   0  0  0  0  0  0  0  0  0  0  0  0
   16.8654   -0.9344   17.5371 N   0  0  0  0  0  0  0  0  0  0  0  0
   18.2001   -0.3843   17.9773 C   0  0  0  0  0  0  0  0  0  0  0  0
   18.5107    1.1263   17.5923 C   0  0  0  0  0  0  0  0  0  0  0  0
   19.3048    1.3852   16.3251 C   0  0  0  0  0  0  0  0  0  0  0  0
   18.2190    1.9118   15.4639 C   0  0  0  0  0  0  0  0  0  0  0  0
   17.0713    1.8606   16.4451 C   0  0  0  0  0  0  0  0  0  0  0  0
   17.4648    2.1975   17.8624 N   0  0  0  0  0  0  0  0  0  0  0  0
   16.3115    2.1853   18.7127 C   0  0  0  0  0  0  0  0  0  0  0  0
   15.8259    1.2941   19.3613 O   0  0  0  0  0  0  0  0  0  0  0  0
   15.6624    3.5814   18.7196 C   0  0  0  0  0  0  0  0  0  0  0  0
   14.6881    3.7168   19.7441 O   0  0  0  0  0  0  0  0  0  0  0  0
   15.9923   -1.8621   18.1650 C   0  0  0  0  0  0  0  0  0  0  0  0
   16.1319   -2.5145   19.1614 O   0  0  0  0  0  0  0  0  0  0  0  0
   14.6551   -1.9361   17.4148 C   0  0  0  0  0  0  0  0  0  0  0  0
   14.0491   -3.3031   17.3209 C   0  0  0  0  0  0  0  0  0  0  0  0
   12.9239   -3.3798   16.5999 C   0  0  0  0  0  0  0  0  0  0  0  0
   12.4108   -2.2278   16.0320 N   0  0  0  0  0  0  0  0  0  0  0  0
   11.3050   -2.0564   15.2526 C   0  0  0  0  0  0  0  0  0  0  0  0
   11.2477   -0.7081   14.9948 C   0  0  0  0  0  0  0  0  0  0  0  0
   12.2818   -0.0469   15.6042 N   0  0  0  0  0  0  0  0  0  0  0  0
   13.0008   -0.9769   16.2008 C   0  0  0  0  0  0  0  0  0  0  0  0
   14.1613   -0.8431   16.8983 N   0  0  0  0  0  0  0  0  0  0  0  0
   18.3017   -2.4756   16.9564 H   0  0  0  0  0  0  0  0  0  0  0  0
   18.2837   -0.9978   15.8457 H   0  0  0  0  0  0  0  0  0  0  0  0
   17.0145   -2.1479   15.8658 H   0  0  0  0  0  0  0  0  0  0  0  0
   18.0332   -0.3331   19.0675 H   0  0  0  0  0  0  0  0  0  0  0  0
   19.1125   -1.0106   17.9687 H   0  0  0  0  0  0  0  0  0  0  0  0
   19.2369    1.3732   18.3856 H   0  0  0  0  0  0  0  0  0  0  0  0
   19.8146    0.5065   15.9240 H   0  0  0  0  0  0  0  0  0  0  0  0
   20.0633    2.1610   16.4872 H   0  0  0  0  0  0  0  0  0  0  0  0
   18.0270    1.3018   14.5769 H   0  0  0  0  0  0  0  0  0  0  0  0
   18.4320    2.9367   15.1420 H   0  0  0  0  0  0  0  0  0  0  0  0
   16.4475    0.9665   16.3610 H   0  0  0  0  0  0  0  0  0  0  0  0
   16.3676    2.6499   16.1423 H   0  0  0  0  0  0  0  0  0  0  0  0
   16.4295    4.3458   18.8740 H   0  0  0  0  0  0  0  0  0  0  0  0
   15.1660    3.7531   17.7608 H   0  0  0  0  0  0  0  0  0  0  0  0
   14.2944    2.8265   19.8458 H   0  0  0  0  0  0  0  0  0  0  0  0
   14.5154   -4.1433   17.8165 H   0  0  0  0  0  0  0  0  0  0  0  0
   12.3830   -4.3059   16.4507 H   0  0  0  0  0  0  0  0  0  0  0  0
   10.6820   -2.8780   14.9298 H   0  0  0  0  0  0  0  0  0  0  0  0
   10.5167   -0.1852   14.3902 H   0  0  0  0  0  0  0  0  0  0  0  0
  1  2  1  0
  2  3  1  0
  3  4  1  0
  4  5  1  0
  5  6  1  0
  6  7  1  0
  7  8  1  0
  8  9  1  0
  9 10  2  0
  9 11  1  0
 11 12  1  0
  2 13  1  0
 13 14  2  0
 13 15  1  0
 15 16  1  0
 16 17  2  0
 17 18  1  0
 18 19  1  0
 19 20  2  0
 20 21  1  0
 21 22  2  0
 22 23  1  0
  8  4  1  0
 23 15  2  0
 22 18  1  0
  1 24  1  0
  1 25  1  0
  1 26  1  0
  3 27  1  0
  3 28  1  0
  4 29  1  0
  5 30  1  0
  5 31  1  0
  6 32  1  0
  6 33  1  0
  7 34  1  0
  7 35  1  0
 11 36  1  0
 11 37  1  0
 12 38  1  0
 16 39  1  0
 17 40  1  0
 19 41  1  0
 20 42  1  0
M  END
>  <Energy>  (954) 
236.08391566002012

>  <compound_id>  (954) 
8797

>  <target_id>  (954) 
1

>  <reference_id>  (954) 
106

>  <inspiration_ids>  (954) 
[124, 106]

>  <energy_score>  (954) 
71.7094057539382

>  <distance_score>  (954) 
3.247318321574623

>  <path>  (954) 
/opt/xchem-fragalysis-2/maxwin/BulkDock/SCRATCH/511014/C8797-P106/C8797-P106.minimised.mol

>  <scratch_subdir>  (954) 
/opt/xchem-fragalysis-2/maxwin/BulkDock/SCRATCH/511014/C8797-P106

>  <fragmenstein_runtime>  (954) 
3.9982075691223145

>  <fragmenstein_outcome>  (954) 
too moved

>  <fragmenstein_mode>  (954) 
expansion

>  <fragmenstein_error>  (954) 


$$$$
C8798-P124
     RDKit          3D

 40 43  0  0  0  0  0  0  0  0999 V2000
   16.9225   -4.5312   15.6005 C   0  0  0  0  0  0  0  0  0  0  0  0
   18.0511   -3.7679   15.4360 C   0  0  0  0  0  0  0  0  0  0  0  0
   17.8279   -2.6640   16.2030 N   0  0  0  0  0  0  0  0  0  0  0  0
   18.5778   -1.5103   16.3297 C   0  0  0  0  0  0  0  0  0  0  0  0
   18.0259   -0.4574   16.9441 C   0  0  0  0  0  0  0  0  0  0  0  0
   16.5783   -0.6312   17.3495 C   0  0  0  0  0  0  0  0  0  0  0  0
   15.7284    0.4618   17.3769 N   0  0  0  0  0  0  0  0  0  0  0  0
   16.0020    1.5852   18.2673 C   0  0  0  0  0  0  0  0  0  0  0  0
   15.1116    2.6940   17.7454 C   0  0  0  0  0  0  0  0  0  0  0  0
   15.1286    2.4848   16.2405 C   0  0  0  0  0  0  0  0  0  0  0  0
   15.3840    0.9749   16.0242 C   0  0  0  0  0  0  0  0  0  0  0  0
   14.2021    0.2736   15.3197 C   0  0  0  0  0  0  0  0  0  0  0  0
   14.1393    0.7094   13.8580 C   0  0  0  0  0  0  0  0  0  0  0  0
   12.9155    0.1435   13.1737 C   0  0  0  0  0  0  0  0  0  0  0  0
   12.8759   -1.2756   13.2720 O   0  0  0  0  0  0  0  0  0  0  0  0
   12.8204   -1.7284   14.6151 C   0  0  0  0  0  0  0  0  0  0  0  0
   14.0659   -1.2600   15.3600 C   0  0  0  0  0  0  0  0  0  0  0  0
   16.0184   -1.8009   17.5040 N   0  0  0  0  0  0  0  0  0  0  0  0
   16.6001   -2.8264   16.8317 C   0  0  0  0  0  0  0  0  0  0  0  0
   16.0466   -3.9655   16.4785 N   0  0  0  0  0  0  0  0  0  0  0  0
   16.7088   -5.4825   15.1318 H   0  0  0  0  0  0  0  0  0  0  0  0
   18.9369   -3.8990   14.8334 H   0  0  0  0  0  0  0  0  0  0  0  0
   19.5652   -1.4966   15.8890 H   0  0  0  0  0  0  0  0  0  0  0  0
   18.5111    0.5003   17.0506 H   0  0  0  0  0  0  0  0  0  0  0  0
   17.0520    1.8937   18.2137 H   0  0  0  0  0  0  0  0  0  0  0  0
   15.7655    1.3335   19.3057 H   0  0  0  0  0  0  0  0  0  0  0  0
   14.0992    2.5968   18.1439 H   0  0  0  0  0  0  0  0  0  0  0  0
   15.4774    3.6853   18.0301 H   0  0  0  0  0  0  0  0  0  0  0  0
   14.2077    2.8576   15.7821 H   0  0  0  0  0  0  0  0  0  0  0  0
   15.9588    3.0538   15.8034 H   0  0  0  0  0  0  0  0  0  0  0  0
   16.2622    0.8896   15.3688 H   0  0  0  0  0  0  0  0  0  0  0  0
   13.3205    0.6956   15.7604 H   0  0  0  0  0  0  0  0  0  0  0  0
   14.1306    1.7998   13.7581 H   0  0  0  0  0  0  0  0  0  0  0  0
   15.0373    0.3474   13.3401 H   0  0  0  0  0  0  0  0  0  0  0  0
   11.9791    0.5664   13.5383 H   0  0  0  0  0  0  0  0  0  0  0  0
   12.9819    0.4059   12.1135 H   0  0  0  0  0  0  0  0  0  0  0  0
   11.8961   -1.3789   15.0797 H   0  0  0  0  0  0  0  0  0  0  0  0
   12.7715   -2.8189   14.6081 H   0  0  0  0  0  0  0  0  0  0  0  0
   13.9928   -1.6379   16.3768 H   0  0  0  0  0  0  0  0  0  0  0  0
   14.9454   -1.6994   14.8762 H   0  0  0  0  0  0  0  0  0  0  0  0
  1  2  2  0
  2  3  1  0
  3  4  1  0
  4  5  2  0
  5  6  1  0
  6  7  1  0
  7  8  1  0
  8  9  1  0
  9 10  1  0
 10 11  1  0
 11 12  1  0
 12 13  1  0
 13 14  1  0
 14 15  1  0
 15 16  1  0
 16 17  1  0
  6 18  2  0
 18 19  1  0
 19 20  2  0
 20  1  1  0
 19  3  1  0
 11  7  1  0
 17 12  1  0
  1 21  1  0
  2 22  1  0
  4 23  1  0
  5 24  1  0
  8 25  1  0
  8 26  1  0
  9 27  1  0
  9 28  1  0
 10 29  1  0
 10 30  1  0
 11 31  1  0
 12 32  1  0
 13 33  1  0
 13 34  1  0
 14 35  1  0
 14 36  1  0
 16 37  1  0
 16 38  1  0
 17 39  1  0
 17 40  1  0
M  END
>  <Energy>  (955) 
39.857104517535447

>  <compound_id>  (955) 
8798

>  <target_id>  (955) 
1

>  <reference_id>  (955) 
124

>  <inspiration_ids>  (955) 
[124, 106]

>  <energy_score>  (955) 
-16.406305343989487

>  <distance_score>  (955) 
2.287916913367606

>  <path>  (955) 
/opt/xchem-fragalysis-2/maxwin/BulkDock/SCRATCH/511014/C8798-P124/C8798-P124.minimised.mol

>  <scratch_subdir>  (955) 
/opt/xchem-fragalysis-2/maxwin/BulkDock/SCRATCH/511014/C8798-P124

>  <fragmenstein_runtime>  (955) 
52.85999584197998

>  <fragmenstein_outcome>  (955) 
too moved

>  <fragmenstein_mode>  (955) 
expansion

>  <fragmenstein_error>  (955) 


$$$$
C8798-P106
     RDKit          3D

 40 43  0  0  0  0  0  0  0  0999 V2000
   17.1587   -4.1210   15.3076 C   0  0  0  0  0  0  0  0  0  0  0  0
   18.1509   -3.1761   15.2127 C   0  0  0  0  0  0  0  0  0  0  0  0
   17.6879   -2.1221   15.9461 N   0  0  0  0  0  0  0  0  0  0  0  0
   18.2235   -0.8598   16.1337 C   0  0  0  0  0  0  0  0  0  0  0  0
   17.4802    0.0718   16.7469 C   0  0  0  0  0  0  0  0  0  0  0  0
   16.0780   -0.3471   17.1129 C   0  0  0  0  0  0  0  0  0  0  0  0
   15.0786    0.5778   17.3183 N   0  0  0  0  0  0  0  0  0  0  0  0
   15.2562    1.8289   18.0412 C   0  0  0  0  0  0  0  0  0  0  0  0
   14.0220    2.6339   17.6722 C   0  0  0  0  0  0  0  0  0  0  0  0
   13.8384    2.2560   16.2151 C   0  0  0  0  0  0  0  0  0  0  0  0
   14.0956    0.7365   16.1945 C   0  0  0  0  0  0  0  0  0  0  0  0
   12.8628   -0.2008   16.4064 C   0  0  0  0  0  0  0  0  0  0  0  0
   11.5399    0.3774   15.8874 C   0  0  0  0  0  0  0  0  0  0  0  0
   11.4899    0.4069   14.3700 C   0  0  0  0  0  0  0  0  0  0  0  0
   12.1269   -0.7170   13.7766 O   0  0  0  0  0  0  0  0  0  0  0  0
   12.0973   -1.8731   14.6100 C   0  0  0  0  0  0  0  0  0  0  0  0
   13.0389   -1.6156   15.7789 C   0  0  0  0  0  0  0  0  0  0  0  0
   15.6889   -1.5938   17.1265 N   0  0  0  0  0  0  0  0  0  0  0  0
   16.4630   -2.4897   16.4773 C   0  0  0  0  0  0  0  0  0  0  0  0
   16.1355   -3.7016   16.1012 N   0  0  0  0  0  0  0  0  0  0  0  0
   17.1330   -5.0994   14.8458 H   0  0  0  0  0  0  0  0  0  0  0  0
   19.0909   -3.1567   14.6832 H   0  0  0  0  0  0  0  0  0  0  0  0
   19.2150   -0.6710   15.7459 H   0  0  0  0  0  0  0  0  0  0  0  0
   17.8070    1.0876   16.9008 H   0  0  0  0  0  0  0  0  0  0  0  0
   16.1552    2.3611   17.7133 H   0  0  0  0  0  0  0  0  0  0  0  0
   15.3200    1.6598   19.1202 H   0  0  0  0  0  0  0  0  0  0  0  0
   13.1583    2.3141   18.2640 H   0  0  0  0  0  0  0  0  0  0  0  0
   14.1664    3.7079   17.8178 H   0  0  0  0  0  0  0  0  0  0  0  0
   12.8864    2.5905   15.8048 H   0  0  0  0  0  0  0  0  0  0  0  0
   14.6171    2.7543   15.6207 H   0  0  0  0  0  0  0  0  0  0  0  0
   14.5681    0.5000   15.2315 H   0  0  0  0  0  0  0  0  0  0  0  0
   12.7741   -0.3492   17.4835 H   0  0  0  0  0  0  0  0  0  0  0  0
   10.7232   -0.2668   16.2386 H   0  0  0  0  0  0  0  0  0  0  0  0
   11.3051    1.3645   16.2944 H   0  0  0  0  0  0  0  0  0  0  0  0
   10.4502    0.4437   14.0269 H   0  0  0  0  0  0  0  0  0  0  0  0
   11.9853    1.3012   13.9794 H   0  0  0  0  0  0  0  0  0  0  0  0
   11.0732   -2.0951   14.9318 H   0  0  0  0  0  0  0  0  0  0  0  0
   12.4434   -2.7253   14.0199 H   0  0  0  0  0  0  0  0  0  0  0  0
   12.9060   -2.3946   16.5378 H   0  0  0  0  0  0  0  0  0  0  0  0
   14.0468   -1.7154   15.3724 H   0  0  0  0  0  0  0  0  0  0  0  0
  1  2  2  0
  2  3  1  0
  3  4  1  0
  4  5  2  0
  5  6  1  0
  6  7  1  0
  7  8  1  0
  8  9  1  0
  9 10  1  0
 10 11  1  0
 11 12  1  0
 12 13  1  0
 13 14  1  0
 14 15  1  0
 15 16  1  0
 16 17  1  0
  6 18  2  0
 18 19  1  0
 19 20  2  0
 20  1  1  0
 19  3  1  0
 11  7  1  0
 17 12  1  0
  1 21  1  0
  2 22  1  0
  4 23  1  0
  5 24  1  0
  8 25  1  0
  8 26  1  0
  9 27  1  0
  9 28  1  0
 10 29  1  0
 10 30  1  0
 11 31  1  0
 12 32  1  0
 13 33  1  0
 13 34  1  0
 14 35  1  0
 14 36  1  0
 16 37  1  0
 16 38  1  0
 17 39  1  0
 17 40  1  0
M  END
>  <Energy>  (956) 
35.458141664861664

>  <compound_id>  (956) 
8798

>  <target_id>  (956) 
1

>  <reference_id>  (956) 
106

>  <inspiration_ids>  (956) 
[124, 106]

>  <energy_score>  (956) 
-20.805268196663604

>  <distance_score>  (956) 
1.8117205274632922

>  <path>  (956) 
/opt/xchem-fragalysis-2/maxwin/BulkDock/SCRATCH/511014/C8798-P106/C8798-P106.minimised.mol

>  <scratch_subdir>  (956) 
/opt/xchem-fragalysis-2/maxwin/BulkDock/SCRATCH/511014/C8798-P106

>  <fragmenstein_runtime>  (956) 
53.44397711753845

>  <fragmenstein_outcome>  (956) 
too moved

>  <fragmenstein_mode>  (956) 
expansion

>  <fragmenstein_error>  (956) 


$$$$
C7646-P124
     RDKit          3D

 33 36  0  0  0  0  0  0  0  0999 V2000
   18.2404   -1.3583   16.8945 C   0  0  0  0  0  0  0  0  0  0  0  0
   17.5021   -2.4943   16.5440 C   0  0  0  0  0  0  0  0  0  0  0  0
   16.7191   -2.1076   15.4756 C   0  0  0  0  0  0  0  0  0  0  0  0
   15.5693   -2.8362   14.8393 C   0  0  0  0  0  0  0  0  0  0  0  0
   14.8462   -2.1132   13.6565 C   0  0  0  0  0  0  0  0  0  0  0  0
   13.4180   -1.8464   14.1729 C   0  0  0  0  0  0  0  0  0  0  0  0
   13.6524   -1.7911   15.6311 N   0  0  0  0  0  0  0  0  0  0  0  0
   14.2054   -0.5740   16.0711 C   0  0  0  0  0  0  0  0  0  0  0  0
   14.8642   -0.4805   17.4509 C   0  0  0  0  0  0  0  0  0  0  0  0
   15.2963    0.7266   17.8329 C   0  0  0  0  0  0  0  0  0  0  0  0
   15.1416    1.7948   16.9714 N   0  0  0  0  0  0  0  0  0  0  0  0
   15.4551    3.1130   17.1494 C   0  0  0  0  0  0  0  0  0  0  0  0
   15.1308    3.7239   15.9628 C   0  0  0  0  0  0  0  0  0  0  0  0
   14.6032    2.8226   15.0776 N   0  0  0  0  0  0  0  0  0  0  0  0
   14.5794    1.6654   15.7095 C   0  0  0  0  0  0  0  0  0  0  0  0
   14.1100    0.4671   15.2780 N   0  0  0  0  0  0  0  0  0  0  0  0
   14.4472   -2.9912   15.9009 C   0  0  0  0  0  0  0  0  0  0  0  0
   17.1096   -0.8269   15.1960 N   0  0  0  0  0  0  0  0  0  0  0  0
   17.9908   -0.3352   16.0846 N   0  0  0  0  0  0  0  0  0  0  0  0
   18.9500   -1.2317   17.7019 H   0  0  0  0  0  0  0  0  0  0  0  0
   17.4929   -3.4507   17.0475 H   0  0  0  0  0  0  0  0  0  0  0  0
   15.9657   -3.8094   14.5410 H   0  0  0  0  0  0  0  0  0  0  0  0
   15.3285   -1.1760   13.3662 H   0  0  0  0  0  0  0  0  0  0  0  0
   14.8226   -2.7188   12.7451 H   0  0  0  0  0  0  0  0  0  0  0  0
   12.9697   -0.9448   13.7428 H   0  0  0  0  0  0  0  0  0  0  0  0
   12.7363   -2.6718   13.9401 H   0  0  0  0  0  0  0  0  0  0  0  0
   14.9323   -1.3451   18.0919 H   0  0  0  0  0  0  0  0  0  0  0  0
   15.7630    0.9152   18.7901 H   0  0  0  0  0  0  0  0  0  0  0  0
   15.8927    3.4878   18.0624 H   0  0  0  0  0  0  0  0  0  0  0  0
   15.2499    4.7660   15.6965 H   0  0  0  0  0  0  0  0  0  0  0  0
   13.8224   -3.8744   15.7473 H   0  0  0  0  0  0  0  0  0  0  0  0
   14.8029   -3.0745   16.9309 H   0  0  0  0  0  0  0  0  0  0  0  0
   16.7436   -0.1864   14.4961 H   0  0  0  0  0  0  0  0  0  0  0  0
  1  2  1  0
  2  3  2  0
  3  4  1  0
  4  5  1  0
  5  6  1  0
  6  7  1  0
  7  8  1  0
  8  9  1  0
  9 10  2  0
 10 11  1  0
 11 12  1  0
 12 13  2  0
 13 14  1  0
 14 15  2  0
 15 16  1  0
  7 17  1  0
  3 18  1  0
 18 19  1  0
 19  1  2  0
 17  4  1  0
 16  8  2  0
 15 11  1  0
  1 20  1  0
  2 21  1  0
  4 22  1  0
  5 23  1  0
  5 24  1  0
  6 25  1  0
  6 26  1  0
  9 27  1  0
 10 28  1  0
 12 29  1  0
 13 30  1  0
 17 31  1  0
 17 32  1  0
 18 33  1  0
M  END
>  <Energy>  (957) 
34.213347350969187

>  <compound_id>  (957) 
7646

>  <target_id>  (957) 
1

>  <reference_id>  (957) 
124

>  <inspiration_ids>  (957) 
[124, 106]

>  <energy_score>  (957) 
-16.156656987493605

>  <distance_score>  (957) 
2.525910106612396

>  <path>  (957) 
/opt/xchem-fragalysis-2/maxwin/BulkDock/SCRATCH/511014/C7646-P124/C7646-P124.minimised.mol

>  <scratch_subdir>  (957) 
/opt/xchem-fragalysis-2/maxwin/BulkDock/SCRATCH/511014/C7646-P124

>  <fragmenstein_runtime>  (957) 
10.266555786132812

>  <fragmenstein_outcome>  (957) 
too moved

>  <fragmenstein_mode>  (957) 
expansion

>  <fragmenstein_error>  (957) 


$$$$
C7646-P106
     RDKit          3D

 33 36  0  0  0  0  0  0  0  0999 V2000
   17.2214   -0.9507   17.4264 C   0  0  0  0  0  0  0  0  0  0  0  0
   16.3696   -2.0494   17.2636 C   0  0  0  0  0  0  0  0  0  0  0  0
   15.7191   -1.8368   16.0643 C   0  0  0  0  0  0  0  0  0  0  0  0
   14.6426   -2.6371   15.3996 C   0  0  0  0  0  0  0  0  0  0  0  0
   13.9304   -1.9688   14.1857 C   0  0  0  0  0  0  0  0  0  0  0  0
   12.4257   -2.1223   14.4854 C   0  0  0  0  0  0  0  0  0  0  0  0
   12.4254   -2.0057   15.9651 N   0  0  0  0  0  0  0  0  0  0  0  0
   12.5518   -0.6714   16.3913 C   0  0  0  0  0  0  0  0  0  0  0  0
   13.5088   -0.2981   17.5079 C   0  0  0  0  0  0  0  0  0  0  0  0
   13.8331    0.9906   17.6452 C   0  0  0  0  0  0  0  0  0  0  0  0
   13.1980    1.9154   16.8488 N   0  0  0  0  0  0  0  0  0  0  0  0
   13.3443    3.2721   16.7997 C   0  0  0  0  0  0  0  0  0  0  0  0
   12.4233    3.6954   15.8720 C   0  0  0  0  0  0  0  0  0  0  0  0
   11.7366    2.6346   15.3395 N   0  0  0  0  0  0  0  0  0  0  0  0
   12.2140    1.5584   15.9355 C   0  0  0  0  0  0  0  0  0  0  0  0
   11.8969    0.2502   15.7207 N   0  0  0  0  0  0  0  0  0  0  0  0
   13.4667   -2.9759   16.3553 C   0  0  0  0  0  0  0  0  0  0  0  0
   16.2913   -0.7083   15.5514 N   0  0  0  0  0  0  0  0  0  0  0  0
   17.1626   -0.1230   16.3879 N   0  0  0  0  0  0  0  0  0  0  0  0
   17.8865   -0.7216   18.2493 H   0  0  0  0  0  0  0  0  0  0  0  0
   16.2234   -2.8708   17.9513 H   0  0  0  0  0  0  0  0  0  0  0  0
   15.1614   -3.5574   15.1212 H   0  0  0  0  0  0  0  0  0  0  0  0
   14.1637   -0.9021   14.1004 H   0  0  0  0  0  0  0  0  0  0  0  0
   14.2028   -2.4183   13.2265 H   0  0  0  0  0  0  0  0  0  0  0  0
   11.8195   -1.3755   13.9644 H   0  0  0  0  0  0  0  0  0  0  0  0
   12.0513   -3.1081   14.1887 H   0  0  0  0  0  0  0  0  0  0  0  0
   13.9465   -1.0474   18.1460 H   0  0  0  0  0  0  0  0  0  0  0  0
   14.5461    1.3527   18.3739 H   0  0  0  0  0  0  0  0  0  0  0  0
   14.0486    3.8052   17.4207 H   0  0  0  0  0  0  0  0  0  0  0  0
   12.2176    4.7101   15.5578 H   0  0  0  0  0  0  0  0  0  0  0  0
   13.0924   -3.9860   16.1452 H   0  0  0  0  0  0  0  0  0  0  0  0
   13.7022   -2.9679   17.4221 H   0  0  0  0  0  0  0  0  0  0  0  0
   16.1107   -0.2492   14.6642 H   0  0  0  0  0  0  0  0  0  0  0  0
  1  2  1  0
  2  3  2  0
  3  4  1  0
  4  5  1  0
  5  6  1  0
  6  7  1  0
  7  8  1  0
  8  9  1  0
  9 10  2  0
 10 11  1  0
 11 12  1  0
 12 13  2  0
 13 14  1  0
 14 15  2  0
 15 16  1  0
  7 17  1  0
  3 18  1  0
 18 19  1  0
 19  1  2  0
 17  4  1  0
 16  8  2  0
 15 11  1  0
  1 20  1  0
  2 21  1  0
  4 22  1  0
  5 23  1  0
  5 24  1  0
  6 25  1  0
  6 26  1  0
  9 27  1  0
 10 28  1  0
 12 29  1  0
 13 30  1  0
 17 31  1  0
 17 32  1  0
 18 33  1  0
M  END
>  <Energy>  (958) 
36.757320041365318

>  <compound_id>  (958) 
7646

>  <target_id>  (958) 
1

>  <reference_id>  (958) 
106

>  <inspiration_ids>  (958) 
[124, 106]

>  <energy_score>  (958) 
-13.612684297099364

>  <distance_score>  (958) 
1.8794300183746429

>  <path>  (958) 
/opt/xchem-fragalysis-2/maxwin/BulkDock/SCRATCH/511014/C7646-P106/C7646-P106.minimised.mol

>  <scratch_subdir>  (958) 
/opt/xchem-fragalysis-2/maxwin/BulkDock/SCRATCH/511014/C7646-P106

>  <fragmenstein_runtime>  (958) 
9.924992799758911

>  <fragmenstein_outcome>  (958) 
too moved

>  <fragmenstein_mode>  (958) 
expansion

>  <fragmenstein_error>  (958) 


$$$$
C8799-P124
     RDKit          3D

 37 39  0  0  0  0  0  0  0  0999 V2000
   21.5526   -2.5182   16.9865 C   0  0  0  0  0  0  0  0  0  0  0  0
   20.1779   -2.8578   17.5370 C   0  0  0  0  0  0  0  0  0  0  0  0
   19.7217   -1.8640   18.6035 C   0  0  0  0  0  0  0  0  0  0  0  0
   20.3702   -0.9551   18.9734 O   0  0  0  0  0  0  0  0  0  0  0  0
   18.3610   -2.3541   19.0686 N   0  0  0  0  0  0  0  0  0  0  0  0
   17.4946   -1.8930   20.1925 C   0  0  0  0  0  0  0  0  0  0  0  0
   16.0998   -2.4570   20.1021 C   0  0  0  0  0  0  0  0  0  0  0  0
   15.8595   -2.2350   18.6570 C   0  0  0  0  0  0  0  0  0  0  0  0
   15.5735   -3.5123   18.0625 O   0  0  0  0  0  0  0  0  0  0  0  0
   15.2383   -3.6394   16.7728 C   0  0  0  0  0  0  0  0  0  0  0  0
   15.3986   -4.6750   16.1491 O   0  0  0  0  0  0  0  0  0  0  0  0
   14.5757   -2.4466   16.0942 C   0  0  0  0  0  0  0  0  0  0  0  0
   13.2056   -2.6672   15.5103 C   0  0  0  0  0  0  0  0  0  0  0  0
   12.7518   -1.6583   14.7488 C   0  0  0  0  0  0  0  0  0  0  0  0
   13.4982   -0.4877   14.6768 N   0  0  0  0  0  0  0  0  0  0  0  0
   13.2701    0.6802   14.0078 C   0  0  0  0  0  0  0  0  0  0  0  0
   14.2052    1.5638   14.4930 C   0  0  0  0  0  0  0  0  0  0  0  0
   15.0786    0.9408   15.3379 N   0  0  0  0  0  0  0  0  0  0  0  0
   14.6764   -0.3090   15.3949 C   0  0  0  0  0  0  0  0  0  0  0  0
   15.2544   -1.3405   16.0531 N   0  0  0  0  0  0  0  0  0  0  0  0
   17.2403   -1.6984   18.2795 C   0  0  0  0  0  0  0  0  0  0  0  0
   22.3059   -2.5177   17.7812 H   0  0  0  0  0  0  0  0  0  0  0  0
   21.5548   -1.5268   16.5215 H   0  0  0  0  0  0  0  0  0  0  0  0
   21.8527   -3.2511   16.2313 H   0  0  0  0  0  0  0  0  0  0  0  0
   20.2022   -3.8584   17.9828 H   0  0  0  0  0  0  0  0  0  0  0  0
   19.4571   -2.8636   16.7136 H   0  0  0  0  0  0  0  0  0  0  0  0
   17.9743   -2.2926   21.0966 H   0  0  0  0  0  0  0  0  0  0  0  0
   17.5479   -0.8006   20.3451 H   0  0  0  0  0  0  0  0  0  0  0  0
   15.4096   -1.9033   20.7459 H   0  0  0  0  0  0  0  0  0  0  0  0
   16.0717   -3.5145   20.3884 H   0  0  0  0  0  0  0  0  0  0  0  0
   15.0393   -1.5289   18.4985 H   0  0  0  0  0  0  0  0  0  0  0  0
   12.6981   -3.6112   15.6545 H   0  0  0  0  0  0  0  0  0  0  0  0
   11.8147   -1.6887   14.2034 H   0  0  0  0  0  0  0  0  0  0  0  0
   12.4349    0.8085   13.3344 H   0  0  0  0  0  0  0  0  0  0  0  0
   14.3040    2.6151   14.2550 H   0  0  0  0  0  0  0  0  0  0  0  0
   17.4576   -1.9451   17.2334 H   0  0  0  0  0  0  0  0  0  0  0  0
   17.3150   -0.5969   18.3168 H   0  0  0  0  0  0  0  0  0  0  0  0
  1  2  1  0
  2  3  1  0
  3  4  2  0
  3  5  1  0
  5  6  1  0
  6  7  1  0
  7  8  1  0
  8  9  1  0
  9 10  1  0
 10 11  2  0
 10 12  1  0
 12 13  1  0
 13 14  2  0
 14 15  1  0
 15 16  1  0
 16 17  2  0
 17 18  1  0
 18 19  2  0
 19 20  1  0
  8 21  1  0
 21  5  1  0
 20 12  2  0
 19 15  1  0
  1 22  1  0
  1 23  1  0
  1 24  1  0
  2 25  1  0
  2 26  1  0
  6 27  1  0
  6 28  1  0
  7 29  1  0
  7 30  1  0
  8 31  1  0
 13 32  1  0
 14 33  1  0
 16 34  1  0
 17 35  1  0
 21 36  1  0
 21 37  1  0
M  END
>  <Energy>  (959) 
137.14291522619655

>  <compound_id>  (959) 
8799

>  <target_id>  (959) 
1

>  <reference_id>  (959) 
124

>  <inspiration_ids>  (959) 
[124, 106]

>  <energy_score>  (959) 
30.517976123119126

>  <distance_score>  (959) 
3.8458898955243424

>  <path>  (959) 
/opt/xchem-fragalysis-2/maxwin/BulkDock/SCRATCH/511014/C8799-P124/C8799-P124.minimised.mol

>  <scratch_subdir>  (959) 
/opt/xchem-fragalysis-2/maxwin/BulkDock/SCRATCH/511014/C8799-P124

>  <fragmenstein_runtime>  (959) 
1.9140188694000244

>  <fragmenstein_outcome>  (959) 
too moved

>  <fragmenstein_mode>  (959) 
expansion

>  <fragmenstein_error>  (959) 


$$$$
C8799-P106
     RDKit          3D

 37 39  0  0  0  0  0  0  0  0999 V2000
   17.8655   -9.0141   18.8923 C   0  0  0  0  0  0  0  0  0  0  0  0
   17.9591   -7.5039   19.0264 C   0  0  0  0  0  0  0  0  0  0  0  0
   18.1152   -6.8135   17.6733 C   0  0  0  0  0  0  0  0  0  0  0  0
   18.1904   -7.3862   16.6482 O   0  0  0  0  0  0  0  0  0  0  0  0
   18.2106   -5.3267   17.9788 N   0  0  0  0  0  0  0  0  0  0  0  0
   18.5284   -4.1636   17.0842 C   0  0  0  0  0  0  0  0  0  0  0  0
   17.6352   -4.0837   15.8640 C   0  0  0  0  0  0  0  0  0  0  0  0
   16.3495   -4.4889   16.4937 C   0  0  0  0  0  0  0  0  0  0  0  0
   15.4180   -3.4327   16.3311 O   0  0  0  0  0  0  0  0  0  0  0  0
   14.2270   -3.5871   16.9436 C   0  0  0  0  0  0  0  0  0  0  0  0
   13.8261   -4.4953   17.6377 O   0  0  0  0  0  0  0  0  0  0  0  0
   13.4372   -2.3440   16.6166 C   0  0  0  0  0  0  0  0  0  0  0  0
   12.2325   -2.5242   15.7471 C   0  0  0  0  0  0  0  0  0  0  0  0
   11.6714   -1.3784   15.3338 C   0  0  0  0  0  0  0  0  0  0  0  0
   12.2067   -0.1716   15.7611 N   0  0  0  0  0  0  0  0  0  0  0  0
   11.8243    1.1118   15.4834 C   0  0  0  0  0  0  0  0  0  0  0  0
   12.6775    1.9092   16.2098 C   0  0  0  0  0  0  0  0  0  0  0  0
   13.5720    1.1555   16.9154 N   0  0  0  0  0  0  0  0  0  0  0  0
   13.2920   -0.0974   16.6301 C   0  0  0  0  0  0  0  0  0  0  0  0
   13.9163   -1.2203   17.0627 N   0  0  0  0  0  0  0  0  0  0  0  0
   16.8502   -4.6664   17.9209 C   0  0  0  0  0  0  0  0  0  0  0  0
   17.7609   -9.4786   19.8776 H   0  0  0  0  0  0  0  0  0  0  0  0
   18.7620   -9.4234   18.4149 H   0  0  0  0  0  0  0  0  0  0  0  0
   17.0013   -9.3013   18.2847 H   0  0  0  0  0  0  0  0  0  0  0  0
   17.0560   -7.1335   19.5215 H   0  0  0  0  0  0  0  0  0  0  0  0
   18.8247   -7.2474   19.6475 H   0  0  0  0  0  0  0  0  0  0  0  0
   18.6017   -3.2222   17.6543 H   0  0  0  0  0  0  0  0  0  0  0  0
   19.5520   -4.3520   16.7329 H   0  0  0  0  0  0  0  0  0  0  0  0
   17.9474   -4.8176   15.1123 H   0  0  0  0  0  0  0  0  0  0  0  0
   17.6453   -3.0898   15.4074 H   0  0  0  0  0  0  0  0  0  0  0  0
   15.9738   -5.4036   16.0322 H   0  0  0  0  0  0  0  0  0  0  0  0
   11.8943   -3.5140   15.4744 H   0  0  0  0  0  0  0  0  0  0  0  0
   10.8142   -1.3426   14.6724 H   0  0  0  0  0  0  0  0  0  0  0  0
   11.0042    1.3409   14.8188 H   0  0  0  0  0  0  0  0  0  0  0  0
   12.6898    2.9904   16.2672 H   0  0  0  0  0  0  0  0  0  0  0  0
   16.8173   -3.7486   18.5343 H   0  0  0  0  0  0  0  0  0  0  0  0
   16.1556   -5.3401   18.4391 H   0  0  0  0  0  0  0  0  0  0  0  0
  1  2  1  0
  2  3  1  0
  3  4  2  0
  3  5  1  0
  5  6  1  0
  6  7  1  0
  7  8  1  0
  8  9  1  0
  9 10  1  0
 10 11  2  0
 10 12  1  0
 12 13  1  0
 13 14  2  0
 14 15  1  0
 15 16  1  0
 16 17  2  0
 17 18  1  0
 18 19  2  0
 19 20  1  0
  8 21  1  0
 21  5  1  0
 20 12  2  0
 19 15  1  0
  1 22  1  0
  1 23  1  0
  1 24  1  0
  2 25  1  0
  2 26  1  0
  6 27  1  0
  6 28  1  0
  7 29  1  0
  7 30  1  0
  8 31  1  0
 13 32  1  0
 14 33  1  0
 16 34  1  0
 17 35  1  0
 21 36  1  0
 21 37  1  0
M  END
>  <Energy>  (960) 
129.37655744740567

>  <compound_id>  (960) 
8799

>  <target_id>  (960) 
1

>  <reference_id>  (960) 
106

>  <inspiration_ids>  (960) 
[124, 106]

>  <energy_score>  (960) 
22.751618344327483

>  <distance_score>  (960) 
4.923851636520429

>  <path>  (960) 
/opt/xchem-fragalysis-2/maxwin/BulkDock/SCRATCH/511014/C8799-P106/C8799-P106.minimised.mol

>  <scratch_subdir>  (960) 
/opt/xchem-fragalysis-2/maxwin/BulkDock/SCRATCH/511014/C8799-P106

>  <fragmenstein_runtime>  (960) 
1.9484198093414307

>  <fragmenstein_outcome>  (960) 
too moved

>  <fragmenstein_mode>  (960) 
expansion

>  <fragmenstein_error>  (960) 


$$$$
C8800-P124
     RDKit          3D

 41 43  0  0  0  0  0  0  0  0999 V2000
   14.3280    1.9935   19.6894 O   0  0  0  0  0  0  0  0  0  0  0  0
   15.1570    2.3423   18.5889 C   0  0  0  0  0  0  0  0  0  0  0  0
   16.2189    1.2815   18.3511 C   0  0  0  0  0  0  0  0  0  0  0  0
   15.6559   -0.0535   17.8283 C   0  0  0  0  0  0  0  0  0  0  0  0
   16.7652   -0.9293   17.4945 N   0  0  0  0  0  0  0  0  0  0  0  0
   17.4389   -1.6111   18.5778 C   0  0  0  0  0  0  0  0  0  0  0  0
   18.4530   -2.4804   17.8355 C   0  0  0  0  0  0  0  0  0  0  0  0
   18.1146   -2.3276   16.3547 C   0  0  0  0  0  0  0  0  0  0  0  0
   16.6492   -1.8680   16.3729 C   0  0  0  0  0  0  0  0  0  0  0  0
   15.8029   -3.1772   16.4840 C   0  0  0  0  0  0  0  0  0  0  0  0
   14.3623   -3.0843   16.6897 N   0  0  0  0  0  0  0  0  0  0  0  0
   13.6074   -2.4052   15.7851 C   0  0  0  0  0  0  0  0  0  0  0  0
   12.1895   -2.8134   15.5449 C   0  0  0  0  0  0  0  0  0  0  0  0
   11.5176   -2.0282   14.6958 C   0  0  0  0  0  0  0  0  0  0  0  0
   12.1480   -0.9261   14.1270 N   0  0  0  0  0  0  0  0  0  0  0  0
   11.6736    0.0935   13.3552 C   0  0  0  0  0  0  0  0  0  0  0  0
   12.7104    0.9890   13.2316 C   0  0  0  0  0  0  0  0  0  0  0  0
   13.8205    0.5411   13.8773 N   0  0  0  0  0  0  0  0  0  0  0  0
   13.4673   -0.6150   14.3898 C   0  0  0  0  0  0  0  0  0  0  0  0
   14.1891   -1.4071   15.1927 N   0  0  0  0  0  0  0  0  0  0  0  0
   14.9074    1.8998   20.4659 H   0  0  0  0  0  0  0  0  0  0  0  0
   14.5318    2.4863   17.7035 H   0  0  0  0  0  0  0  0  0  0  0  0
   15.6292    3.3031   18.8195 H   0  0  0  0  0  0  0  0  0  0  0  0
   16.7614    1.1060   19.2879 H   0  0  0  0  0  0  0  0  0  0  0  0
   16.9395    1.6769   17.6237 H   0  0  0  0  0  0  0  0  0  0  0  0
   14.9745   -0.5177   18.5495 H   0  0  0  0  0  0  0  0  0  0  0  0
   15.0795    0.1819   16.9304 H   0  0  0  0  0  0  0  0  0  0  0  0
   16.7534   -2.2328   19.1652 H   0  0  0  0  0  0  0  0  0  0  0  0
   17.9494   -0.9219   19.2574 H   0  0  0  0  0  0  0  0  0  0  0  0
   19.4817   -2.1561   18.0266 H   0  0  0  0  0  0  0  0  0  0  0  0
   18.3692   -3.5255   18.1539 H   0  0  0  0  0  0  0  0  0  0  0  0
   18.7518   -1.5508   15.9103 H   0  0  0  0  0  0  0  0  0  0  0  0
   18.2884   -3.2521   15.7944 H   0  0  0  0  0  0  0  0  0  0  0  0
   16.4702   -1.3404   15.4327 H   0  0  0  0  0  0  0  0  0  0  0  0
   16.1811   -3.7974   17.3051 H   0  0  0  0  0  0  0  0  0  0  0  0
   15.9741   -3.7731   15.5772 H   0  0  0  0  0  0  0  0  0  0  0  0
   13.9626   -3.9601   17.0049 H   0  0  0  0  0  0  0  0  0  0  0  0
   11.7721   -3.6774   16.0397 H   0  0  0  0  0  0  0  0  0  0  0  0
   10.4792   -2.1933   14.4640 H   0  0  0  0  0  0  0  0  0  0  0  0
   10.6451    0.1571   13.0468 H   0  0  0  0  0  0  0  0  0  0  0  0
   12.6981    1.9468   12.7299 H   0  0  0  0  0  0  0  0  0  0  0  0
  1  2  1  0
  2  3  1  0
  3  4  1  0
  4  5  1  0
  5  6  1  0
  6  7  1  0
  7  8  1  0
  8  9  1  0
  9 10  1  0
 10 11  1  0
 11 12  1  0
 12 13  1  0
 13 14  2  0
 14 15  1  0
 15 16  1  0
 16 17  2  0
 17 18  1  0
 18 19  2  0
 19 20  1  0
  9  5  1  0
 20 12  2  0
 19 15  1  0
  1 21  1  0
  2 22  1  0
  2 23  1  0
  3 24  1  0
  3 25  1  0
  4 26  1  0
  4 27  1  0
  6 28  1  0
  6 29  1  0
  7 30  1  0
  7 31  1  0
  8 32  1  0
  8 33  1  0
  9 34  1  0
 10 35  1  0
 10 36  1  0
 11 37  1  0
 13 38  1  0
 14 39  1  0
 16 40  1  0
 17 41  1  0
M  END
>  <Energy>  (961) 
35.913993826480663

>  <compound_id>  (961) 
8800

>  <target_id>  (961) 
1

>  <reference_id>  (961) 
124

>  <inspiration_ids>  (961) 
[124, 106]

>  <energy_score>  (961) 
-19.913225175071304

>  <distance_score>  (961) 
2.1409123609153333

>  <path>  (961) 
/opt/xchem-fragalysis-2/maxwin/BulkDock/SCRATCH/511014/C8800-P124/C8800-P124.minimised.mol

>  <scratch_subdir>  (961) 
/opt/xchem-fragalysis-2/maxwin/BulkDock/SCRATCH/511014/C8800-P124

>  <fragmenstein_runtime>  (961) 
1.8060238361358643

>  <fragmenstein_outcome>  (961) 
too moved

>  <fragmenstein_mode>  (961) 
expansion

>  <fragmenstein_error>  (961) 


$$$$
C8800-P106
     RDKit          3D

 41 43  0  0  0  0  0  0  0  0999 V2000
   17.1230    2.9849   18.4113 O   0  0  0  0  0  0  0  0  0  0  0  0
   15.7535    2.7014   18.1489 C   0  0  0  0  0  0  0  0  0  0  0  0
   15.6134    1.3483   17.4659 C   0  0  0  0  0  0  0  0  0  0  0  0
   16.1055    0.2010   18.3510 C   0  0  0  0  0  0  0  0  0  0  0  0
   15.9173   -1.1442   17.7794 N   0  0  0  0  0  0  0  0  0  0  0  0
   16.2122   -2.1701   18.7824 C   0  0  0  0  0  0  0  0  0  0  0  0
   16.5593   -3.3969   17.9691 C   0  0  0  0  0  0  0  0  0  0  0  0
   17.3906   -2.8102   16.8515 C   0  0  0  0  0  0  0  0  0  0  0  0
   16.7405   -1.4405   16.5811 C   0  0  0  0  0  0  0  0  0  0  0  0
   15.9397   -1.5240   15.2638 C   0  0  0  0  0  0  0  0  0  0  0  0
   14.7467   -2.3582   15.3670 N   0  0  0  0  0  0  0  0  0  0  0  0
   13.5086   -1.8088   15.5270 C   0  0  0  0  0  0  0  0  0  0  0  0
   12.3023   -2.7003   15.4792 C   0  0  0  0  0  0  0  0  0  0  0  0
   11.1342   -2.0716   15.3103 C   0  0  0  0  0  0  0  0  0  0  0  0
   11.0958   -0.6925   15.3943 N   0  0  0  0  0  0  0  0  0  0  0  0
   10.0413    0.1712   15.3379 C   0  0  0  0  0  0  0  0  0  0  0  0
   10.5745    1.4099   15.6097 C   0  0  0  0  0  0  0  0  0  0  0  0
   11.9179    1.3320   15.8307 N   0  0  0  0  0  0  0  0  0  0  0  0
   12.2243    0.0673   15.6403 C   0  0  0  0  0  0  0  0  0  0  0  0
   13.4395   -0.5104   15.6385 N   0  0  0  0  0  0  0  0  0  0  0  0
   17.1526    3.8826   18.7838 H   0  0  0  0  0  0  0  0  0  0  0  0
   15.2044    2.7219   19.0959 H   0  0  0  0  0  0  0  0  0  0  0  0
   15.3581    3.4890   17.4993 H   0  0  0  0  0  0  0  0  0  0  0  0
   16.1805    1.3609   16.5285 H   0  0  0  0  0  0  0  0  0  0  0  0
   14.5582    1.1999   17.2246 H   0  0  0  0  0  0  0  0  0  0  0  0
   17.1630    0.3538   18.6033 H   0  0  0  0  0  0  0  0  0  0  0  0
   15.5463    0.2531   19.2949 H   0  0  0  0  0  0  0  0  0  0  0  0
   15.3538   -2.3500   19.4374 H   0  0  0  0  0  0  0  0  0  0  0  0
   17.0728   -1.8947   19.4062 H   0  0  0  0  0  0  0  0  0  0  0  0
   17.1171   -4.1365   18.5514 H   0  0  0  0  0  0  0  0  0  0  0  0
   15.6557   -3.8815   17.5844 H   0  0  0  0  0  0  0  0  0  0  0  0
   18.4180   -2.6602   17.2079 H   0  0  0  0  0  0  0  0  0  0  0  0
   17.4345   -3.4756   15.9837 H   0  0  0  0  0  0  0  0  0  0  0  0
   17.5476   -0.7084   16.4479 H   0  0  0  0  0  0  0  0  0  0  0  0
   15.7007   -0.5127   14.9150 H   0  0  0  0  0  0  0  0  0  0  0  0
   16.5767   -1.9495   14.4784 H   0  0  0  0  0  0  0  0  0  0  0  0
   14.8923   -3.3264   15.6170 H   0  0  0  0  0  0  0  0  0  0  0  0
   12.4211   -3.7698   15.4737 H   0  0  0  0  0  0  0  0  0  0  0  0
   10.2066   -2.5896   15.1226 H   0  0  0  0  0  0  0  0  0  0  0  0
    9.0412   -0.1540   15.0889 H   0  0  0  0  0  0  0  0  0  0  0  0
   10.0574    2.3596   15.6536 H   0  0  0  0  0  0  0  0  0  0  0  0
  1  2  1  0
  2  3  1  0
  3  4  1  0
  4  5  1  0
  5  6  1  0
  6  7  1  0
  7  8  1  0
  8  9  1  0
  9 10  1  0
 10 11  1  0
 11 12  1  0
 12 13  1  0
 13 14  2  0
 14 15  1  0
 15 16  1  0
 16 17  2  0
 17 18  1  0
 18 19  2  0
 19 20  1  0
  9  5  1  0
 20 12  2  0
 19 15  1  0
  1 21  1  0
  2 22  1  0
  2 23  1  0
  3 24  1  0
  3 25  1  0
  4 26  1  0
  4 27  1  0
  6 28  1  0
  6 29  1  0
  7 30  1  0
  7 31  1  0
  8 32  1  0
  8 33  1  0
  9 34  1  0
 10 35  1  0
 10 36  1  0
 11 37  1  0
 13 38  1  0
 14 39  1  0
 16 40  1  0
 17 41  1  0
M  END
>  <Energy>  (962) 
25.09115359720397

>  <compound_id>  (962) 
8800

>  <target_id>  (962) 
1

>  <reference_id>  (962) 
106

>  <inspiration_ids>  (962) 
[124, 106]

>  <energy_score>  (962) 
-30.73606540434784

>  <distance_score>  (962) 
1.86414406856303

>  <path>  (962) 
/opt/xchem-fragalysis-2/maxwin/BulkDock/SCRATCH/511014/C8800-P106/C8800-P106.minimised.mol

>  <scratch_subdir>  (962) 
/opt/xchem-fragalysis-2/maxwin/BulkDock/SCRATCH/511014/C8800-P106

>  <fragmenstein_runtime>  (962) 
1.68363618850708

>  <fragmenstein_outcome>  (962) 
too moved

>  <fragmenstein_mode>  (962) 
expansion

>  <fragmenstein_error>  (962) 


$$$$
C8801-P124
     RDKit          3D

 42 44  0  0  0  0  0  0  0  0999 V2000
   11.9039   -2.8044   15.1098 C   0  0  0  0  0  0  0  0  0  0  0  0
   12.4086   -3.4029   16.4210 C   0  0  0  0  0  0  0  0  0  0  0  0
   13.8135   -3.7701   16.6259 N   0  0  0  0  0  0  0  0  0  0  0  0
   14.1490   -3.8375   18.0484 C   0  0  0  0  0  0  0  0  0  0  0  0
   14.8174   -3.0918   15.8194 C   0  0  0  0  0  0  0  0  0  0  0  0
   15.4824   -1.8721   16.4147 C   0  0  0  0  0  0  0  0  0  0  0  0
   16.8278   -1.9776   17.0652 C   0  0  0  0  0  0  0  0  0  0  0  0
   17.5489   -0.7923   16.3761 C   0  0  0  0  0  0  0  0  0  0  0  0
   16.5677    0.2527   15.9072 N   0  0  0  0  0  0  0  0  0  0  0  0
   15.5601    1.0678   16.6758 C   0  0  0  0  0  0  0  0  0  0  0  0
   15.2491    1.0220   17.8087 O   0  0  0  0  0  0  0  0  0  0  0  0
   14.7904    2.0094   15.7698 C   0  0  0  0  0  0  0  0  0  0  0  0
   14.3451    3.3053   16.3505 C   0  0  0  0  0  0  0  0  0  0  0  0
   13.3284    3.8705   15.6861 C   0  0  0  0  0  0  0  0  0  0  0  0
   12.8376    3.2718   14.5299 N   0  0  0  0  0  0  0  0  0  0  0  0
   11.8427    3.6765   13.6772 C   0  0  0  0  0  0  0  0  0  0  0  0
   11.7729    2.6901   12.7204 C   0  0  0  0  0  0  0  0  0  0  0  0
   12.6987    1.7061   12.9499 N   0  0  0  0  0  0  0  0  0  0  0  0
   13.3654    2.0951   14.0167 C   0  0  0  0  0  0  0  0  0  0  0  0
   14.3904    1.4840   14.6487 N   0  0  0  0  0  0  0  0  0  0  0  0
   15.9419   -0.9664   15.3193 C   0  0  0  0  0  0  0  0  0  0  0  0
   10.8249   -2.6286   15.1776 H   0  0  0  0  0  0  0  0  0  0  0  0
   12.3741   -1.8366   14.9074 H   0  0  0  0  0  0  0  0  0  0  0  0
   12.0697   -3.4539   14.2525 H   0  0  0  0  0  0  0  0  0  0  0  0
   12.1601   -2.6627   17.1676 H   0  0  0  0  0  0  0  0  0  0  0  0
   11.8062   -4.2925   16.6327 H   0  0  0  0  0  0  0  0  0  0  0  0
   13.4123   -4.4321   18.5989 H   0  0  0  0  0  0  0  0  0  0  0  0
   14.1829   -2.8549   18.5266 H   0  0  0  0  0  0  0  0  0  0  0  0
   15.1260   -4.3105   18.1946 H   0  0  0  0  0  0  0  0  0  0  0  0
   15.5952   -3.8296   15.5832 H   0  0  0  0  0  0  0  0  0  0  0  0
   14.3945   -2.8050   14.8560 H   0  0  0  0  0  0  0  0  0  0  0  0
   14.7739   -1.3452   17.0605 H   0  0  0  0  0  0  0  0  0  0  0  0
   16.7552   -1.8263   18.1474 H   0  0  0  0  0  0  0  0  0  0  0  0
   17.3549   -2.9182   16.8798 H   0  0  0  0  0  0  0  0  0  0  0  0
   18.1726   -0.2934   17.1292 H   0  0  0  0  0  0  0  0  0  0  0  0
   18.2428   -1.0904   15.5734 H   0  0  0  0  0  0  0  0  0  0  0  0
   14.7786    3.6770   17.2673 H   0  0  0  0  0  0  0  0  0  0  0  0
   12.8610    4.7946   15.9996 H   0  0  0  0  0  0  0  0  0  0  0  0
   11.2830    4.5861   13.8305 H   0  0  0  0  0  0  0  0  0  0  0  0
   11.1034    2.6301   11.8749 H   0  0  0  0  0  0  0  0  0  0  0  0
   16.5505   -1.4320   14.5204 H   0  0  0  0  0  0  0  0  0  0  0  0
   15.0492   -0.6559   14.7700 H   0  0  0  0  0  0  0  0  0  0  0  0
  1  2  1  0
  2  3  1  0
  3  4  1  0
  3  5  1  0
  5  6  1  0
  6  7  1  0
  7  8  1  0
  8  9  1  0
  9 10  1  0
 10 11  2  0
 10 12  1  0
 12 13  1  0
 13 14  2  0
 14 15  1  0
 15 16  1  0
 16 17  2  0
 17 18  1  0
 18 19  2  0
 19 20  1  0
  9 21  1  0
 21  6  1  0
 20 12  2  0
 19 15  1  0
  1 22  1  0
  1 23  1  0
  1 24  1  0
  2 25  1  0
  2 26  1  0
  4 27  1  0
  4 28  1  0
  4 29  1  0
  5 30  1  0
  5 31  1  0
  6 32  1  0
  7 33  1  0
  7 34  1  0
  8 35  1  0
  8 36  1  0
 13 37  1  0
 14 38  1  0
 16 39  1  0
 17 40  1  0
 21 41  1  0
 21 42  1  0
M  END
>  <Energy>  (963) 
159.02540545722923

>  <compound_id>  (963) 
8801

>  <target_id>  (963) 
1

>  <reference_id>  (963) 
124

>  <inspiration_ids>  (963) 
[124, 106]

>  <energy_score>  (963) 
31.137572669209646

>  <distance_score>  (963) 
2.3517411369972856

>  <path>  (963) 
/opt/xchem-fragalysis-2/maxwin/BulkDock/SCRATCH/511014/C8801-P124/C8801-P124.minimised.mol

>  <scratch_subdir>  (963) 
/opt/xchem-fragalysis-2/maxwin/BulkDock/SCRATCH/511014/C8801-P124

>  <fragmenstein_runtime>  (963) 
3.046466588973999

>  <fragmenstein_outcome>  (963) 
too moved

>  <fragmenstein_mode>  (963) 
expansion

>  <fragmenstein_error>  (963) 


$$$$
C8801-P106
     RDKit          3D

 42 44  0  0  0  0  0  0  0  0999 V2000
   12.1742   -2.7248   14.9756 C   0  0  0  0  0  0  0  0  0  0  0  0
   12.5774   -2.9954   16.4169 C   0  0  0  0  0  0  0  0  0  0  0  0
   13.7498   -3.8444   16.6730 N   0  0  0  0  0  0  0  0  0  0  0  0
   13.8108   -4.1455   18.1122 C   0  0  0  0  0  0  0  0  0  0  0  0
   15.0628   -3.3932   16.1858 C   0  0  0  0  0  0  0  0  0  0  0  0
   15.6215   -2.0970   16.7470 C   0  0  0  0  0  0  0  0  0  0  0  0
   17.1032   -1.9029   16.7746 C   0  0  0  0  0  0  0  0  0  0  0  0
   17.1974   -0.4654   16.2245 C   0  0  0  0  0  0  0  0  0  0  0  0
   15.9052    0.3147   16.3263 N   0  0  0  0  0  0  0  0  0  0  0  0
   15.1239    0.7674   17.5349 C   0  0  0  0  0  0  0  0  0  0  0  0
   15.2956    0.5515   18.6728 O   0  0  0  0  0  0  0  0  0  0  0  0
   13.9301    1.5201   17.0020 C   0  0  0  0  0  0  0  0  0  0  0  0
   14.0989    2.8831   16.4509 C   0  0  0  0  0  0  0  0  0  0  0  0
   13.1660    3.1937   15.5372 C   0  0  0  0  0  0  0  0  0  0  0  0
   12.1546    2.2857   15.2360 N   0  0  0  0  0  0  0  0  0  0  0  0
   11.2066    2.3024   14.2452 C   0  0  0  0  0  0  0  0  0  0  0  0
   10.5704    1.0848   14.3434 C   0  0  0  0  0  0  0  0  0  0  0  0
   11.0150    0.3810   15.4277 N   0  0  0  0  0  0  0  0  0  0  0  0
   12.0064    1.0896   15.9169 C   0  0  0  0  0  0  0  0  0  0  0  0
   12.9083    0.7278   16.8531 N   0  0  0  0  0  0  0  0  0  0  0  0
   15.3831   -0.9714   15.7991 C   0  0  0  0  0  0  0  0  0  0  0  0
   11.2941   -2.0774   14.9562 H   0  0  0  0  0  0  0  0  0  0  0  0
   12.9675   -2.2343   14.4067 H   0  0  0  0  0  0  0  0  0  0  0  0
   11.8809   -3.6337   14.4556 H   0  0  0  0  0  0  0  0  0  0  0  0
   12.6788   -2.0418   16.9443 H   0  0  0  0  0  0  0  0  0  0  0  0
   11.7159   -3.5100   16.8466 H   0  0  0  0  0  0  0  0  0  0  0  0
   12.9367   -4.7230   18.4192 H   0  0  0  0  0  0  0  0  0  0  0  0
   13.8486   -3.2452   18.7343 H   0  0  0  0  0  0  0  0  0  0  0  0
   14.6836   -4.7628   18.3517 H   0  0  0  0  0  0  0  0  0  0  0  0
   15.7766   -4.2012   16.3967 H   0  0  0  0  0  0  0  0  0  0  0  0
   15.0562   -3.3212   15.0985 H   0  0  0  0  0  0  0  0  0  0  0  0
   15.2191   -1.8905   17.7425 H   0  0  0  0  0  0  0  0  0  0  0  0
   17.4956   -1.9711   17.7947 H   0  0  0  0  0  0  0  0  0  0  0  0
   17.6627   -2.6000   16.1423 H   0  0  0  0  0  0  0  0  0  0  0  0
   17.9211    0.0881   16.8370 H   0  0  0  0  0  0  0  0  0  0  0  0
   17.5899   -0.4205   15.1957 H   0  0  0  0  0  0  0  0  0  0  0  0
   14.9453    3.4945   16.7240 H   0  0  0  0  0  0  0  0  0  0  0  0
   13.1763    4.1241   14.9842 H   0  0  0  0  0  0  0  0  0  0  0  0
   11.1210    3.1176   13.5430 H   0  0  0  0  0  0  0  0  0  0  0  0
    9.8195    0.6579   13.6905 H   0  0  0  0  0  0  0  0  0  0  0  0
   15.6963   -1.1473   14.7513 H   0  0  0  0  0  0  0  0  0  0  0  0
   14.3050   -0.8421   15.6882 H   0  0  0  0  0  0  0  0  0  0  0  0
  1  2  1  0
  2  3  1  0
  3  4  1  0
  3  5  1  0
  5  6  1  0
  6  7  1  0
  7  8  1  0
  8  9  1  0
  9 10  1  0
 10 11  2  0
 10 12  1  0
 12 13  1  0
 13 14  2  0
 14 15  1  0
 15 16  1  0
 16 17  2  0
 17 18  1  0
 18 19  2  0
 19 20  1  0
  9 21  1  0
 21  6  1  0
 20 12  2  0
 19 15  1  0
  1 22  1  0
  1 23  1  0
  1 24  1  0
  2 25  1  0
  2 26  1  0
  4 27  1  0
  4 28  1  0
  4 29  1  0
  5 30  1  0
  5 31  1  0
  6 32  1  0
  7 33  1  0
  7 34  1  0
  8 35  1  0
  8 36  1  0
 13 37  1  0
 14 38  1  0
 16 39  1  0
 17 40  1  0
 21 41  1  0
 21 42  1  0
M  END
>  <Energy>  (964) 
158.67319004385882

>  <compound_id>  (964) 
8801

>  <target_id>  (964) 
1

>  <reference_id>  (964) 
106

>  <inspiration_ids>  (964) 
[124, 106]

>  <energy_score>  (964) 
30.785357255836573

>  <distance_score>  (964) 
2.102954428573761

>  <path>  (964) 
/opt/xchem-fragalysis-2/maxwin/BulkDock/SCRATCH/511014/C8801-P106/C8801-P106.minimised.mol

>  <scratch_subdir>  (964) 
/opt/xchem-fragalysis-2/maxwin/BulkDock/SCRATCH/511014/C8801-P106

>  <fragmenstein_runtime>  (964) 
2.565037250518799

>  <fragmenstein_outcome>  (964) 
too moved

>  <fragmenstein_mode>  (964) 
expansion

>  <fragmenstein_error>  (964) 


$$$$
C8802-P124
     RDKit          3D

 40 43  0  0  0  0  0  0  0  0999 V2000
   17.4209    1.4331   15.0933 O   0  0  0  0  0  0  0  0  0  0  0  0
   16.3974    1.1923   15.6053 C   0  0  0  0  0  0  0  0  0  0  0  0
   15.4634    2.2769   16.1308 C   0  0  0  0  0  0  0  0  0  0  0  0
   14.1903    2.4024   15.3531 C   0  0  0  0  0  0  0  0  0  0  0  0
   13.3285    3.3127   15.8180 C   0  0  0  0  0  0  0  0  0  0  0  0
   13.6668    4.0434   16.9435 N   0  0  0  0  0  0  0  0  0  0  0  0
   12.9611    5.0128   17.6038 C   0  0  0  0  0  0  0  0  0  0  0  0
   13.7592    5.3803   18.6597 C   0  0  0  0  0  0  0  0  0  0  0  0
   14.9260    4.6617   18.6668 N   0  0  0  0  0  0  0  0  0  0  0  0
   14.8721    3.8607   17.6205 C   0  0  0  0  0  0  0  0  0  0  0  0
   15.7918    2.9441   17.1970 N   0  0  0  0  0  0  0  0  0  0  0  0
   15.6936   -0.1120   15.7946 N   0  0  0  0  0  0  0  0  0  0  0  0
   16.0903   -0.7649   17.0989 C   0  0  0  0  0  0  0  0  0  0  0  0
   15.4048   -2.1011   17.3445 C   0  0  0  0  0  0  0  0  0  0  0  0
   15.0636   -2.4782   15.9383 C   0  0  0  0  0  0  0  0  0  0  0  0
   13.6368   -2.2148   15.7147 N   0  0  0  0  0  0  0  0  0  0  0  0
   12.7487   -3.2874   16.1471 C   0  0  0  0  0  0  0  0  0  0  0  0
   11.4432   -2.9419   15.4660 C   0  0  0  0  0  0  0  0  0  0  0  0
   11.8211   -2.2054   14.2035 C   0  0  0  0  0  0  0  0  0  0  0  0
   13.2756   -1.8261   14.3557 C   0  0  0  0  0  0  0  0  0  0  0  0
   16.0307   -1.4775   15.3038 C   0  0  0  0  0  0  0  0  0  0  0  0
   14.0074    1.7760   14.4913 H   0  0  0  0  0  0  0  0  0  0  0  0
   12.3681    3.5065   15.3577 H   0  0  0  0  0  0  0  0  0  0  0  0
   11.9882    5.3472   17.2757 H   0  0  0  0  0  0  0  0  0  0  0  0
   13.5572    6.1246   19.4192 H   0  0  0  0  0  0  0  0  0  0  0  0
   17.1881   -0.8043   17.2134 H   0  0  0  0  0  0  0  0  0  0  0  0
   15.7785   -0.0674   17.8895 H   0  0  0  0  0  0  0  0  0  0  0  0
   16.0968   -2.8103   17.8122 H   0  0  0  0  0  0  0  0  0  0  0  0
   14.5437   -1.9998   18.0130 H   0  0  0  0  0  0  0  0  0  0  0  0
   15.3407   -3.5058   15.6824 H   0  0  0  0  0  0  0  0  0  0  0  0
   13.1064   -4.2688   15.8388 H   0  0  0  0  0  0  0  0  0  0  0  0
   12.6376   -3.3150   17.2336 H   0  0  0  0  0  0  0  0  0  0  0  0
   10.8380   -3.8221   15.2523 H   0  0  0  0  0  0  0  0  0  0  0  0
   10.8507   -2.2705   16.0842 H   0  0  0  0  0  0  0  0  0  0  0  0
   11.6814   -2.8613   13.3432 H   0  0  0  0  0  0  0  0  0  0  0  0
   11.2016   -1.3143   14.0737 H   0  0  0  0  0  0  0  0  0  0  0  0
   13.8686   -2.3279   13.5857 H   0  0  0  0  0  0  0  0  0  0  0  0
   13.4030   -0.7482   14.2118 H   0  0  0  0  0  0  0  0  0  0  0  0
   17.1044   -1.7317   15.3772 H   0  0  0  0  0  0  0  0  0  0  0  0
   15.8767   -1.4331   14.2177 H   0  0  0  0  0  0  0  0  0  0  0  0
  1  2  2  0
  2  3  1  0
  3  4  1  0
  4  5  2  0
  5  6  1  0
  6  7  1  0
  7  8  2  0
  8  9  1  0
  9 10  2  0
 10 11  1  0
  2 12  1  0
 12 13  1  0
 13 14  1  0
 14 15  1  0
 15 16  1  0
 16 17  1  0
 17 18  1  0
 18 19  1  0
 19 20  1  0
 15 21  1  0
 11  3  2  0
 21 12  1  0
 10  6  1  0
 20 16  1  0
  4 22  1  0
  5 23  1  0
  7 24  1  0
  8 25  1  0
 13 26  1  0
 13 27  1  0
 14 28  1  0
 14 29  1  0
 15 30  1  0
 17 31  1  0
 17 32  1  0
 18 33  1  0
 18 34  1  0
 19 35  1  0
 19 36  1  0
 20 37  1  0
 20 38  1  0
 21 39  1  0
 21 40  1  0
M  END
>  <Energy>  (965) 
155.69395906989826

>  <compound_id>  (965) 
8802

>  <target_id>  (965) 
1

>  <reference_id>  (965) 
124

>  <inspiration_ids>  (965) 
[124, 106]

>  <energy_score>  (965) 
38.3228764639922

>  <distance_score>  (965) 
2.5258547889791183

>  <path>  (965) 
/opt/xchem-fragalysis-2/maxwin/BulkDock/SCRATCH/511014/C8802-P124/C8802-P124.minimised.mol

>  <scratch_subdir>  (965) 
/opt/xchem-fragalysis-2/maxwin/BulkDock/SCRATCH/511014/C8802-P124

>  <fragmenstein_runtime>  (965) 
2.1900174617767334

>  <fragmenstein_outcome>  (965) 
too moved

>  <fragmenstein_mode>  (965) 
expansion

>  <fragmenstein_error>  (965) 


$$$$
C8802-P106
     RDKit          3D

 40 43  0  0  0  0  0  0  0  0999 V2000
   12.9357    0.2803   16.3688 O   0  0  0  0  0  0  0  0  0  0  0  0
   13.8828    0.5754   17.0013 C   0  0  0  0  0  0  0  0  0  0  0  0
   14.1369    2.0625   17.1642 C   0  0  0  0  0  0  0  0  0  0  0  0
   12.9008    2.8857   16.9960 C   0  0  0  0  0  0  0  0  0  0  0  0
   13.0885    4.2059   17.0111 C   0  0  0  0  0  0  0  0  0  0  0  0
   14.3660    4.7030   17.2014 N   0  0  0  0  0  0  0  0  0  0  0  0
   14.8050    5.9980   17.2633 C   0  0  0  0  0  0  0  0  0  0  0  0
   16.1612    5.9070   17.4633 C   0  0  0  0  0  0  0  0  0  0  0  0
   16.5625    4.5979   17.5233 N   0  0  0  0  0  0  0  0  0  0  0  0
   15.4717    3.8728   17.3692 C   0  0  0  0  0  0  0  0  0  0  0  0
   15.3437    2.5156   17.3477 N   0  0  0  0  0  0  0  0  0  0  0  0
   14.9621   -0.2898   17.6073 N   0  0  0  0  0  0  0  0  0  0  0  0
   16.1138   -0.4877   16.6433 C   0  0  0  0  0  0  0  0  0  0  0  0
   15.9711   -1.5877   15.6129 C   0  0  0  0  0  0  0  0  0  0  0  0
   14.9516   -2.4464   16.2846 C   0  0  0  0  0  0  0  0  0  0  0  0
   13.6036   -2.3056   15.7761 N   0  0  0  0  0  0  0  0  0  0  0  0
   12.6101   -3.2638   16.2072 C   0  0  0  0  0  0  0  0  0  0  0  0
   11.3877   -2.8153   15.4339 C   0  0  0  0  0  0  0  0  0  0  0  0
   11.9224   -2.2379   14.1407 C   0  0  0  0  0  0  0  0  0  0  0  0
   13.3761   -1.9180   14.3963 C   0  0  0  0  0  0  0  0  0  0  0  0
   15.0973   -1.7909   17.6720 C   0  0  0  0  0  0  0  0  0  0  0  0
   11.9350    2.4211   16.8569 H   0  0  0  0  0  0  0  0  0  0  0  0
   12.2818    4.9177   16.8981 H   0  0  0  0  0  0  0  0  0  0  0  0
   14.1394    6.8424   17.1644 H   0  0  0  0  0  0  0  0  0  0  0  0
   16.8739    6.7150   17.5670 H   0  0  0  0  0  0  0  0  0  0  0  0
   16.2505    0.4533   16.0947 H   0  0  0  0  0  0  0  0  0  0  0  0
   17.0476   -0.5850   17.2238 H   0  0  0  0  0  0  0  0  0  0  0  0
   15.7126   -1.1924   14.6287 H   0  0  0  0  0  0  0  0  0  0  0  0
   16.9255   -2.1133   15.4886 H   0  0  0  0  0  0  0  0  0  0  0  0
   15.2590   -3.4979   16.2908 H   0  0  0  0  0  0  0  0  0  0  0  0
   12.8945   -4.2857   15.9526 H   0  0  0  0  0  0  0  0  0  0  0  0
   12.4363   -3.2248   17.2845 H   0  0  0  0  0  0  0  0  0  0  0  0
   10.6902   -3.6319   15.2460 H   0  0  0  0  0  0  0  0  0  0  0  0
   10.8588   -2.0251   15.9773 H   0  0  0  0  0  0  0  0  0  0  0  0
   11.8271   -2.9700   13.3346 H   0  0  0  0  0  0  0  0  0  0  0  0
   11.3805   -1.3294   13.8674 H   0  0  0  0  0  0  0  0  0  0  0  0
   14.0147   -2.4385   13.6789 H   0  0  0  0  0  0  0  0  0  0  0  0
   13.5485   -0.8477   14.2416 H   0  0  0  0  0  0  0  0  0  0  0  0
   14.2658   -2.1181   18.3102 H   0  0  0  0  0  0  0  0  0  0  0  0
   16.0001   -2.1009   18.2268 H   0  0  0  0  0  0  0  0  0  0  0  0
  1  2  2  0
  2  3  1  0
  3  4  1  0
  4  5  2  0
  5  6  1  0
  6  7  1  0
  7  8  2  0
  8  9  1  0
  9 10  2  0
 10 11  1  0
  2 12  1  0
 12 13  1  0
 13 14  1  0
 14 15  1  0
 15 16  1  0
 16 17  1  0
 17 18  1  0
 18 19  1  0
 19 20  1  0
 15 21  1  0
 11  3  2  0
 21 12  1  0
 10  6  1  0
 20 16  1  0
  4 22  1  0
  5 23  1  0
  7 24  1  0
  8 25  1  0
 13 26  1  0
 13 27  1  0
 14 28  1  0
 14 29  1  0
 15 30  1  0
 17 31  1  0
 17 32  1  0
 18 33  1  0
 18 34  1  0
 19 35  1  0
 19 36  1  0
 20 37  1  0
 20 38  1  0
 21 39  1  0
 21 40  1  0
M  END
>  <Energy>  (966) 
166.13221947470302

>  <compound_id>  (966) 
8802

>  <target_id>  (966) 
1

>  <reference_id>  (966) 
106

>  <inspiration_ids>  (966) 
[124, 106]

>  <energy_score>  (966) 
48.76113686879677

>  <distance_score>  (966) 
2.2773871811761826

>  <path>  (966) 
/opt/xchem-fragalysis-2/maxwin/BulkDock/SCRATCH/511014/C8802-P106/C8802-P106.minimised.mol

>  <scratch_subdir>  (966) 
/opt/xchem-fragalysis-2/maxwin/BulkDock/SCRATCH/511014/C8802-P106

>  <fragmenstein_runtime>  (966) 
2.169060707092285

>  <fragmenstein_outcome>  (966) 
too moved

>  <fragmenstein_mode>  (966) 
expansion

>  <fragmenstein_error>  (966) 


$$$$
C8803-P124
     RDKit          3D

 31 33  0  0  0  0  0  0  0  0999 V2000
   18.8659   -1.0816   16.0493 O   0  0  0  0  0  0  0  0  0  0  0  0
   18.4062   -2.1103   15.5824 C   0  0  0  0  0  0  0  0  0  0  0  0
   18.7085   -2.4615   14.3120 O   0  0  0  0  0  0  0  0  0  0  0  0
   17.4947   -3.1570   16.2792 C   0  0  0  0  0  0  0  0  0  0  0  0
   18.1176   -4.5220   16.4485 C   0  0  0  0  0  0  0  0  0  0  0  0
   18.3485   -4.4696   17.9102 C   0  0  0  0  0  0  0  0  0  0  0  0
   17.9254   -3.0501   18.1788 C   0  0  0  0  0  0  0  0  0  0  0  0
   16.6585   -2.6889   17.4813 N   0  0  0  0  0  0  0  0  0  0  0  0
   15.3092   -3.3509   17.4969 C   0  0  0  0  0  0  0  0  0  0  0  0
   14.9608   -4.3506   17.9988 O   0  0  0  0  0  0  0  0  0  0  0  0
   14.3462   -2.5624   16.6118 C   0  0  0  0  0  0  0  0  0  0  0  0
   13.0395   -3.2179   16.2631 C   0  0  0  0  0  0  0  0  0  0  0  0
   12.3345   -2.5905   15.3090 C   0  0  0  0  0  0  0  0  0  0  0  0
   12.8294   -1.4048   14.7845 N   0  0  0  0  0  0  0  0  0  0  0  0
   12.3205   -0.5776   13.8379 C   0  0  0  0  0  0  0  0  0  0  0  0
   13.1676    0.5065   13.7945 C   0  0  0  0  0  0  0  0  0  0  0  0
   14.1971    0.3566   14.6697 N   0  0  0  0  0  0  0  0  0  0  0  0
   14.0036   -0.8126   15.2333 C   0  0  0  0  0  0  0  0  0  0  0  0
   14.7789   -1.4269   16.1520 N   0  0  0  0  0  0  0  0  0  0  0  0
   19.2133   -1.6896   13.9771 H   0  0  0  0  0  0  0  0  0  0  0  0
   16.7315   -3.3003   15.4956 H   0  0  0  0  0  0  0  0  0  0  0  0
   17.4232   -5.3296   16.1922 H   0  0  0  0  0  0  0  0  0  0  0  0
   19.0393   -4.6601   15.8759 H   0  0  0  0  0  0  0  0  0  0  0  0
   17.7132   -5.1896   18.4381 H   0  0  0  0  0  0  0  0  0  0  0  0
   19.3879   -4.6545   18.1956 H   0  0  0  0  0  0  0  0  0  0  0  0
   18.7196   -2.3012   18.0610 H   0  0  0  0  0  0  0  0  0  0  0  0
   17.6731   -2.9893   19.2469 H   0  0  0  0  0  0  0  0  0  0  0  0
   12.7509   -4.1507   16.7293 H   0  0  0  0  0  0  0  0  0  0  0  0
   11.3939   -2.9579   14.9168 H   0  0  0  0  0  0  0  0  0  0  0  0
   11.3860   -0.7736   13.3414 H   0  0  0  0  0  0  0  0  0  0  0  0
   13.0627    1.3998   13.1928 H   0  0  0  0  0  0  0  0  0  0  0  0
  1  2  2  0
  2  3  1  0
  2  4  1  0
  4  5  1  0
  5  6  1  0
  6  7  1  0
  7  8  1  0
  8  9  1  0
  9 10  2  0
  9 11  1  0
 11 12  1  0
 12 13  2  0
 13 14  1  0
 14 15  1  0
 15 16  2  0
 16 17  1  0
 17 18  2  0
 18 19  1  0
  8  4  1  0
 19 11  2  0
 18 14  1  0
  3 20  1  0
  4 21  1  0
  5 22  1  0
  5 23  1  0
  6 24  1  0
  6 25  1  0
  7 26  1  0
  7 27  1  0
 12 28  1  0
 13 29  1  0
 15 30  1  0
 16 31  1  0
M  END
>  <Energy>  (967) 
144.70354941404153

>  <compound_id>  (967) 
8803

>  <target_id>  (967) 
1

>  <reference_id>  (967) 
124

>  <inspiration_ids>  (967) 
[124, 106]

>  <energy_score>  (967) 
27.667862300005794

>  <distance_score>  (967) 
2.92503467843965

>  <path>  (967) 
/opt/xchem-fragalysis-2/maxwin/BulkDock/SCRATCH/511014/C8803-P124/C8803-P124.minimised.mol

>  <scratch_subdir>  (967) 
/opt/xchem-fragalysis-2/maxwin/BulkDock/SCRATCH/511014/C8803-P124

>  <fragmenstein_runtime>  (967) 
2.5169036388397217

>  <fragmenstein_outcome>  (967) 
too moved

>  <fragmenstein_mode>  (967) 
expansion

>  <fragmenstein_error>  (967) 


$$$$
C8803-P106
     RDKit          3D

 31 33  0  0  0  0  0  0  0  0999 V2000
   17.1305   -0.7304   14.6593 O   0  0  0  0  0  0  0  0  0  0  0  0
   17.4811   -1.8938   14.7703 C   0  0  0  0  0  0  0  0  0  0  0  0
   18.5935   -2.3082   14.1304 O   0  0  0  0  0  0  0  0  0  0  0  0
   16.7781   -2.9951   15.6089 C   0  0  0  0  0  0  0  0  0  0  0  0
   17.3604   -4.3937   15.5475 C   0  0  0  0  0  0  0  0  0  0  0  0
   18.1114   -4.3715   16.8245 C   0  0  0  0  0  0  0  0  0  0  0  0
   17.7815   -2.9751   17.2816 C   0  0  0  0  0  0  0  0  0  0  0  0
   16.3607   -2.5980   17.0343 N   0  0  0  0  0  0  0  0  0  0  0  0
   15.0794   -3.2806   17.4384 C   0  0  0  0  0  0  0  0  0  0  0  0
   14.9035   -4.3095   17.9730 O   0  0  0  0  0  0  0  0  0  0  0  0
   13.9022   -2.4483   16.9331 C   0  0  0  0  0  0  0  0  0  0  0  0
   12.7934   -3.2101   16.2758 C   0  0  0  0  0  0  0  0  0  0  0  0
   11.8855   -2.4532   15.6425 C   0  0  0  0  0  0  0  0  0  0  0  0
   12.0044   -1.0731   15.7070 N   0  0  0  0  0  0  0  0  0  0  0  0
   11.2160   -0.0929   15.1806 C   0  0  0  0  0  0  0  0  0  0  0  0
   11.7880    1.0927   15.5785 C   0  0  0  0  0  0  0  0  0  0  0  0
   12.8858    0.8677   16.3520 N   0  0  0  0  0  0  0  0  0  0  0  0
   13.0219   -0.4388   16.4132 C   0  0  0  0  0  0  0  0  0  0  0  0
   13.9901   -1.1555   17.0368 N   0  0  0  0  0  0  0  0  0  0  0  0
   18.8970   -1.4964   13.6688 H   0  0  0  0  0  0  0  0  0  0  0  0
   15.8286   -3.0790   15.0564 H   0  0  0  0  0  0  0  0  0  0  0  0
   17.9893   -4.5959   14.6771 H   0  0  0  0  0  0  0  0  0  0  0  0
   16.5758   -5.1579   15.5804 H   0  0  0  0  0  0  0  0  0  0  0  0
   17.7345   -5.1298   17.5194 H   0  0  0  0  0  0  0  0  0  0  0  0
   19.1880   -4.5198   16.7019 H   0  0  0  0  0  0  0  0  0  0  0  0
   18.4875   -2.1987   16.9492 H   0  0  0  0  0  0  0  0  0  0  0  0
   17.8813   -2.9632   18.3760 H   0  0  0  0  0  0  0  0  0  0  0  0
   12.7896   -4.2915   16.3135 H   0  0  0  0  0  0  0  0  0  0  0  0
   11.0504   -2.8619   15.0867 H   0  0  0  0  0  0  0  0  0  0  0  0
   10.3528   -0.3094   14.5665 H   0  0  0  0  0  0  0  0  0  0  0  0
   11.4601    2.0989   15.3510 H   0  0  0  0  0  0  0  0  0  0  0  0
  1  2  2  0
  2  3  1  0
  2  4  1  0
  4  5  1  0
  5  6  1  0
  6  7  1  0
  7  8  1  0
  8  9  1  0
  9 10  2  0
  9 11  1  0
 11 12  1  0
 12 13  2  0
 13 14  1  0
 14 15  1  0
 15 16  2  0
 16 17  1  0
 17 18  2  0
 18 19  1  0
  8  4  1  0
 19 11  2  0
 18 14  1  0
  3 20  1  0
  4 21  1  0
  5 22  1  0
  5 23  1  0
  6 24  1  0
  6 25  1  0
  7 26  1  0
  7 27  1  0
 12 28  1  0
 13 29  1  0
 15 30  1  0
 16 31  1  0
M  END
>  <Energy>  (968) 
146.17691137255864

>  <compound_id>  (968) 
8803

>  <target_id>  (968) 
1

>  <reference_id>  (968) 
106

>  <inspiration_ids>  (968) 
[124, 106]

>  <energy_score>  (968) 
29.14122425852139

>  <distance_score>  (968) 
2.4698161169310224

>  <path>  (968) 
/opt/xchem-fragalysis-2/maxwin/BulkDock/SCRATCH/511014/C8803-P106/C8803-P106.minimised.mol

>  <scratch_subdir>  (968) 
/opt/xchem-fragalysis-2/maxwin/BulkDock/SCRATCH/511014/C8803-P106

>  <fragmenstein_runtime>  (968) 
2.6417624950408936

>  <fragmenstein_outcome>  (968) 
too moved

>  <fragmenstein_mode>  (968) 
expansion

>  <fragmenstein_error>  (968) 


$$$$
C8804-P124
     RDKit          3D

 36 38  0  0  0  0  0  0  0  0999 V2000
   15.8687   -0.2488   21.0296 C   0  0  0  0  0  0  0  0  0  0  0  0
   15.7389   -0.2741   19.4992 C   0  0  0  0  0  0  0  0  0  0  0  0
   16.3998   -1.3535   18.7002 N   0  0  0  0  0  0  0  0  0  0  0  0
   17.5978   -2.0852   18.9402 C   0  0  0  0  0  0  0  0  0  0  0  0
   18.3345   -2.0887   19.8857 O   0  0  0  0  0  0  0  0  0  0  0  0
   17.9833   -2.8916   17.7155 C   0  0  0  0  0  0  0  0  0  0  0  0
   18.8793   -2.1998   16.7389 C   0  0  0  0  0  0  0  0  0  0  0  0
   19.1468   -2.9062   15.6312 C   0  0  0  0  0  0  0  0  0  0  0  0
   18.5939   -4.1707   15.4870 N   0  0  0  0  0  0  0  0  0  0  0  0
   18.7249   -5.0775   14.4732 C   0  0  0  0  0  0  0  0  0  0  0  0
   17.9330   -6.1386   14.8427 C   0  0  0  0  0  0  0  0  0  0  0  0
   17.3264   -5.9131   16.0472 N   0  0  0  0  0  0  0  0  0  0  0  0
   17.7643   -4.7401   16.4482 C   0  0  0  0  0  0  0  0  0  0  0  0
   17.4813   -4.0828   17.6009 N   0  0  0  0  0  0  0  0  0  0  0  0
   15.1468   -2.1807   19.1997 C   0  0  0  0  0  0  0  0  0  0  0  0
   15.3921   -3.3869   20.1246 C   0  0  0  0  0  0  0  0  0  0  0  0
   14.1353   -4.2209   19.9244 C   0  0  0  0  0  0  0  0  0  0  0  0
   13.7931   -4.0995   18.5069 N   0  0  0  0  0  0  0  0  0  0  0  0
   14.4965   -2.9209   17.9832 C   0  0  0  0  0  0  0  0  0  0  0  0
   16.8839   -0.4963   21.3514 H   0  0  0  0  0  0  0  0  0  0  0  0
   15.1729   -0.9260   21.5304 H   0  0  0  0  0  0  0  0  0  0  0  0
   15.6416    0.7587   21.3959 H   0  0  0  0  0  0  0  0  0  0  0  0
   14.7732    0.0710   19.0938 H   0  0  0  0  0  0  0  0  0  0  0  0
   16.3763    0.5775   19.2078 H   0  0  0  0  0  0  0  0  0  0  0  0
   19.2580   -1.2107   16.9525 H   0  0  0  0  0  0  0  0  0  0  0  0
   19.7808   -2.5428   14.8331 H   0  0  0  0  0  0  0  0  0  0  0  0
   19.3376   -4.8949   13.6035 H   0  0  0  0  0  0  0  0  0  0  0  0
   17.7608   -7.0592   14.3003 H   0  0  0  0  0  0  0  0  0  0  0  0
   14.2862   -1.6467   19.6336 H   0  0  0  0  0  0  0  0  0  0  0  0
   16.2587   -3.9880   19.8397 H   0  0  0  0  0  0  0  0  0  0  0  0
   15.5241   -3.0996   21.1708 H   0  0  0  0  0  0  0  0  0  0  0  0
   14.2940   -5.2654   20.2070 H   0  0  0  0  0  0  0  0  0  0  0  0
   13.3190   -3.8284   20.5390 H   0  0  0  0  0  0  0  0  0  0  0  0
   12.7798   -4.0385   18.3893 H   0  0  0  0  0  0  0  0  0  0  0  0
   13.8163   -2.2641   17.4393 H   0  0  0  0  0  0  0  0  0  0  0  0
   15.2305   -3.2486   17.2476 H   0  0  0  0  0  0  0  0  0  0  0  0
  1  2  1  0
  2  3  1  0
  3  4  1  0
  4  5  2  0
  4  6  1  0
  6  7  1  0
  7  8  2  0
  8  9  1  0
  9 10  1  0
 10 11  2  0
 11 12  1  0
 12 13  2  0
 13 14  1  0
  3 15  1  0
 15 16  1  0
 16 17  1  0
 17 18  1  0
 18 19  1  0
 14  6  2  0
 19 15  1  0
 13  9  1  0
  1 20  1  0
  1 21  1  0
  1 22  1  0
  2 23  1  0
  2 24  1  0
  7 25  1  0
  8 26  1  0
 10 27  1  0
 11 28  1  0
 15 29  1  0
 16 30  1  0
 16 31  1  0
 17 32  1  0
 17 33  1  0
 18 34  1  0
 19 35  1  0
 19 36  1  0
M  END
>  <Energy>  (969) 
164.26351891313234

>  <compound_id>  (969) 
8804

>  <target_id>  (969) 
1

>  <reference_id>  (969) 
124

>  <inspiration_ids>  (969) 
[124, 106]

>  <energy_score>  (969) 
50.855361732864054

>  <distance_score>  (969) 
4.284693371812136

>  <path>  (969) 
/opt/xchem-fragalysis-2/maxwin/BulkDock/SCRATCH/511014/C8804-P124/C8804-P124.minimised.mol

>  <scratch_subdir>  (969) 
/opt/xchem-fragalysis-2/maxwin/BulkDock/SCRATCH/511014/C8804-P124

>  <fragmenstein_runtime>  (969) 
14.666686058044434

>  <fragmenstein_outcome>  (969) 
too moved

>  <fragmenstein_mode>  (969) 
expansion

>  <fragmenstein_error>  (969) 


$$$$
C8804-P106
     RDKit          3D

 36 38  0  0  0  0  0  0  0  0999 V2000
   13.1368    2.9164   16.2556 C   0  0  0  0  0  0  0  0  0  0  0  0
   13.4396    2.0145   15.0484 C   0  0  0  0  0  0  0  0  0  0  0  0
   14.3047    0.8076   15.3290 N   0  0  0  0  0  0  0  0  0  0  0  0
   15.1098    0.4821   16.4672 C   0  0  0  0  0  0  0  0  0  0  0  0
   15.2311    1.0391   17.5220 O   0  0  0  0  0  0  0  0  0  0  0  0
   16.0085   -0.7273   16.1888 C   0  0  0  0  0  0  0  0  0  0  0  0
   16.7509   -0.7189   14.8848 C   0  0  0  0  0  0  0  0  0  0  0  0
   17.4191   -1.8466   14.6068 C   0  0  0  0  0  0  0  0  0  0  0  0
   17.4049   -2.8829   15.5270 N   0  0  0  0  0  0  0  0  0  0  0  0
   17.9916   -4.1169   15.4661 C   0  0  0  0  0  0  0  0  0  0  0  0
   17.6534   -4.7290   16.6479 C   0  0  0  0  0  0  0  0  0  0  0  0
   16.8903   -3.9075   17.4318 N   0  0  0  0  0  0  0  0  0  0  0  0
   16.7360   -2.7945   16.7458 C   0  0  0  0  0  0  0  0  0  0  0  0
   16.0235   -1.6817   17.0751 N   0  0  0  0  0  0  0  0  0  0  0  0
   12.9024    0.1071   15.4394 C   0  0  0  0  0  0  0  0  0  0  0  0
   13.0027   -1.3363   16.0195 C   0  0  0  0  0  0  0  0  0  0  0  0
   11.7832   -2.0455   15.4793 C   0  0  0  0  0  0  0  0  0  0  0  0
   11.8411   -1.6541   14.0844 N   0  0  0  0  0  0  0  0  0  0  0  0
   12.2234   -0.2450   14.0646 C   0  0  0  0  0  0  0  0  0  0  0  0
   12.5467    2.4189   17.0288 H   0  0  0  0  0  0  0  0  0  0  0  0
   14.0638    3.2701   16.7187 H   0  0  0  0  0  0  0  0  0  0  0  0
   12.5806    3.7998   15.9248 H   0  0  0  0  0  0  0  0  0  0  0  0
   12.6092    1.9702   14.3345 H   0  0  0  0  0  0  0  0  0  0  0  0
   14.1512    2.6215   14.4646 H   0  0  0  0  0  0  0  0  0  0  0  0
   16.6976    0.1395   14.2310 H   0  0  0  0  0  0  0  0  0  0  0  0
   17.9750   -1.9978   13.6911 H   0  0  0  0  0  0  0  0  0  0  0  0
   18.5662   -4.4464   14.6140 H   0  0  0  0  0  0  0  0  0  0  0  0
   17.9208   -5.7239   16.9784 H   0  0  0  0  0  0  0  0  0  0  0  0
   12.1985    0.5933   16.1325 H   0  0  0  0  0  0  0  0  0  0  0  0
   13.8789   -1.8650   15.6338 H   0  0  0  0  0  0  0  0  0  0  0  0
   13.0393   -1.3409   17.1119 H   0  0  0  0  0  0  0  0  0  0  0  0
   11.8414   -3.1302   15.6026 H   0  0  0  0  0  0  0  0  0  0  0  0
   10.8635   -1.6785   15.9449 H   0  0  0  0  0  0  0  0  0  0  0  0
   10.9343   -1.7987   13.6195 H   0  0  0  0  0  0  0  0  0  0  0  0
   11.3231    0.3655   13.9244 H   0  0  0  0  0  0  0  0  0  0  0  0
   12.8978   -0.0659   13.2204 H   0  0  0  0  0  0  0  0  0  0  0  0
  1  2  1  0
  2  3  1  0
  3  4  1  0
  4  5  2  0
  4  6  1  0
  6  7  1  0
  7  8  2  0
  8  9  1  0
  9 10  1  0
 10 11  2  0
 11 12  1  0
 12 13  2  0
 13 14  1  0
  3 15  1  0
 15 16  1  0
 16 17  1  0
 17 18  1  0
 18 19  1  0
 14  6  2  0
 19 15  1  0
 13  9  1  0
  1 20  1  0
  1 21  1  0
  1 22  1  0
  2 23  1  0
  2 24  1  0
  7 25  1  0
  8 26  1  0
 10 27  1  0
 11 28  1  0
 15 29  1  0
 16 30  1  0
 16 31  1  0
 17 32  1  0
 17 33  1  0
 18 34  1  0
 19 35  1  0
 19 36  1  0
M  END
>  <Energy>  (970) 
161.43993312379504

>  <compound_id>  (970) 
8804

>  <target_id>  (970) 
1

>  <reference_id>  (970) 
106

>  <inspiration_ids>  (970) 
[124, 106]

>  <energy_score>  (970) 
48.03177594352417

>  <distance_score>  (970) 
2.198173901648961

>  <path>  (970) 
/opt/xchem-fragalysis-2/maxwin/BulkDock/SCRATCH/511014/C8804-P106/C8804-P106.minimised.mol

>  <scratch_subdir>  (970) 
/opt/xchem-fragalysis-2/maxwin/BulkDock/SCRATCH/511014/C8804-P106

>  <fragmenstein_runtime>  (970) 
14.61454463005066

>  <fragmenstein_outcome>  (970) 
too moved

>  <fragmenstein_mode>  (970) 
expansion

>  <fragmenstein_error>  (970) 


$$$$
C8805-P124
     RDKit          3D

 45 47  0  0  0  0  0  0  0  0999 V2000
   15.3778   -0.4580   18.8788 C   0  0  0  0  0  0  0  0  0  0  0  0
   16.5728   -1.2936   19.3720 C   0  0  0  0  0  0  0  0  0  0  0  0
   16.4510   -2.7339   18.8529 N   0  0  0  0  0  0  0  0  0  0  0  0
   16.6175   -2.7593   17.4348 C   0  0  0  0  0  0  0  0  0  0  0  0
   17.6024   -2.9017   16.7683 O   0  0  0  0  0  0  0  0  0  0  0  0
   15.2643   -2.6847   16.7238 C   0  0  0  0  0  0  0  0  0  0  0  0
   14.2179   -3.6300   17.2283 C   0  0  0  0  0  0  0  0  0  0  0  0
   13.0476   -3.5962   16.5818 C   0  0  0  0  0  0  0  0  0  0  0  0
   12.8794   -2.6792   15.5601 N   0  0  0  0  0  0  0  0  0  0  0  0
   11.7751   -2.4106   14.8048 C   0  0  0  0  0  0  0  0  0  0  0  0
   12.1306   -1.3266   14.0405 C   0  0  0  0  0  0  0  0  0  0  0  0
   13.4287   -0.9604   14.2648 N   0  0  0  0  0  0  0  0  0  0  0  0
   13.8839   -1.7894   15.1776 C   0  0  0  0  0  0  0  0  0  0  0  0
   15.1106   -1.8159   15.7689 N   0  0  0  0  0  0  0  0  0  0  0  0
   17.4509   -2.9930   19.9769 C   0  0  0  0  0  0  0  0  0  0  0  0
   18.0642   -4.3544   19.7096 C   0  0  0  0  0  0  0  0  0  0  0  0
   17.3706   -5.1550   20.7753 C   0  0  0  0  0  0  0  0  0  0  0  0
   17.4751   -4.4793   22.0935 N   0  0  0  0  0  0  0  0  0  0  0  0
   16.7957   -4.7284   23.3274 C   0  0  0  0  0  0  0  0  0  0  0  0
   15.9016   -5.4919   23.5877 O   0  0  0  0  0  0  0  0  0  0  0  0
   17.4281   -3.8812   24.4361 C   0  0  0  0  0  0  0  0  0  0  0  0
   16.3929   -2.4504   24.8916 S   0  0  0  0  0  0  0  0  0  0  0  0
   14.9386   -3.3190   25.5344 C   0  0  0  0  0  0  0  0  0  0  0  0
   16.7855   -3.3715   21.3285 C   0  0  0  0  0  0  0  0  0  0  0  0
   14.4381   -0.9795   19.0693 H   0  0  0  0  0  0  0  0  0  0  0  0
   15.4548   -0.2234   17.8155 H   0  0  0  0  0  0  0  0  0  0  0  0
   15.3515    0.5006   19.4083 H   0  0  0  0  0  0  0  0  0  0  0  0
   17.4772   -0.8132   18.9656 H   0  0  0  0  0  0  0  0  0  0  0  0
   16.5053   -1.1547   20.4591 H   0  0  0  0  0  0  0  0  0  0  0  0
   14.4350   -4.2671   18.0706 H   0  0  0  0  0  0  0  0  0  0  0  0
   12.2100   -4.2352   16.8308 H   0  0  0  0  0  0  0  0  0  0  0  0
   10.8545   -2.9694   14.8844 H   0  0  0  0  0  0  0  0  0  0  0  0
   11.5098   -0.7713   13.3540 H   0  0  0  0  0  0  0  0  0  0  0  0
   18.3271   -2.3240   20.0367 H   0  0  0  0  0  0  0  0  0  0  0  0
   19.1447   -4.3336   19.8992 H   0  0  0  0  0  0  0  0  0  0  0  0
   17.9025   -4.7726   18.7127 H   0  0  0  0  0  0  0  0  0  0  0  0
   16.3362   -5.4569   20.5358 H   0  0  0  0  0  0  0  0  0  0  0  0
   17.8978   -6.1100   20.9026 H   0  0  0  0  0  0  0  0  0  0  0  0
   18.4062   -3.5064   24.1166 H   0  0  0  0  0  0  0  0  0  0  0  0
   17.6013   -4.5153   25.3118 H   0  0  0  0  0  0  0  0  0  0  0  0
   14.3516   -3.7463   24.7183 H   0  0  0  0  0  0  0  0  0  0  0  0
   14.3057   -2.6015   26.0640 H   0  0  0  0  0  0  0  0  0  0  0  0
   15.2328   -4.1023   26.2375 H   0  0  0  0  0  0  0  0  0  0  0  0
   16.8439   -2.4950   21.9850 H   0  0  0  0  0  0  0  0  0  0  0  0
   15.7007   -3.5649   21.2431 H   0  0  0  0  0  0  0  0  0  0  0  0
  1  2  1  0
  2  3  1  0
  3  4  1  0
  4  5  2  0
  4  6  1  0
  6  7  1  0
  7  8  2  0
  8  9  1  0
  9 10  1  0
 10 11  2  0
 11 12  1  0
 12 13  2  0
 13 14  1  0
  3 15  1  0
 15 16  1  0
 16 17  1  0
 17 18  1  0
 18 19  1  0
 19 20  2  0
 19 21  1  0
 21 22  1  0
 22 23  1  0
 18 24  1  0
 14  6  2  0
 24 15  1  0
 13  9  1  0
  1 25  1  0
  1 26  1  0
  1 27  1  0
  2 28  1  0
  2 29  1  0
  7 30  1  0
  8 31  1  0
 10 32  1  0
 11 33  1  0
 15 34  1  0
 16 35  1  0
 16 36  1  0
 17 37  1  0
 17 38  1  0
 21 39  1  0
 21 40  1  0
 23 41  1  0
 23 42  1  0
 23 43  1  0
 24 44  1  0
 24 45  1  0
M  END
>  <Energy>  (971) 
221.76511152726303

>  <compound_id>  (971) 
8805

>  <target_id>  (971) 
1

>  <reference_id>  (971) 
124

>  <inspiration_ids>  (971) 
[124, 106]

>  <energy_score>  (971) 
96.19520494975154

>  <distance_score>  (971) 
5.767923142073855

>  <path>  (971) 
/opt/xchem-fragalysis-2/maxwin/BulkDock/SCRATCH/511014/C8805-P124/C8805-P124.minimised.mol

>  <scratch_subdir>  (971) 
/opt/xchem-fragalysis-2/maxwin/BulkDock/SCRATCH/511014/C8805-P124

>  <fragmenstein_runtime>  (971) 
6.1792895793914795

>  <fragmenstein_outcome>  (971) 
too moved

>  <fragmenstein_mode>  (971) 
expansion

>  <fragmenstein_error>  (971) 


$$$$
C8805-P106
     RDKit          3D

 45 47  0  0  0  0  0  0  0  0999 V2000
   14.4120   -1.7561   17.6980 C   0  0  0  0  0  0  0  0  0  0  0  0
   15.7614   -1.6114   16.9593 C   0  0  0  0  0  0  0  0  0  0  0  0
   15.5106   -1.5503   15.4511 N   0  0  0  0  0  0  0  0  0  0  0  0
   14.9088   -0.2995   15.1055 C   0  0  0  0  0  0  0  0  0  0  0  0
   15.4059    0.7407   14.7799 O   0  0  0  0  0  0  0  0  0  0  0  0
   13.3767   -0.4110   15.0735 C   0  0  0  0  0  0  0  0  0  0  0  0
   12.8311   -1.6830   14.5034 C   0  0  0  0  0  0  0  0  0  0  0  0
   11.5132   -1.8539   14.6416 C   0  0  0  0  0  0  0  0  0  0  0  0
   10.7547   -0.8241   15.1686 N   0  0  0  0  0  0  0  0  0  0  0  0
    9.4020   -0.7379   15.3738 C   0  0  0  0  0  0  0  0  0  0  0  0
    9.1933    0.5183   15.8801 C   0  0  0  0  0  0  0  0  0  0  0  0
   10.3713    1.1944   16.0088 N   0  0  0  0  0  0  0  0  0  0  0  0
   11.3175    0.3785   15.5868 C   0  0  0  0  0  0  0  0  0  0  0  0
   12.6683    0.5633   15.5709 N   0  0  0  0  0  0  0  0  0  0  0  0
   16.9460   -1.9902   15.4064 C   0  0  0  0  0  0  0  0  0  0  0  0
   17.4084   -3.4080   15.5213 C   0  0  0  0  0  0  0  0  0  0  0  0
   18.8891   -3.0748   15.6174 C   0  0  0  0  0  0  0  0  0  0  0  0
   19.2385   -2.0161   16.6324 N   0  0  0  0  0  0  0  0  0  0  0  0
   18.9345   -1.9228   18.0287 C   0  0  0  0  0  0  0  0  0  0  0  0
   18.2470   -2.6204   18.7268 O   0  0  0  0  0  0  0  0  0  0  0  0
   19.6949   -0.7275   18.6149 C   0  0  0  0  0  0  0  0  0  0  0  0
   20.9750   -1.2563   19.7974 S   0  0  0  0  0  0  0  0  0  0  0  0
   22.0094   -2.2441   18.6892 C   0  0  0  0  0  0  0  0  0  0  0  0
   18.2194   -1.2102   15.8114 C   0  0  0  0  0  0  0  0  0  0  0  0
   13.8235   -2.5851   17.2927 H   0  0  0  0  0  0  0  0  0  0  0  0
   13.8224   -0.8385   17.6442 H   0  0  0  0  0  0  0  0  0  0  0  0
   14.5922   -1.9530   18.7607 H   0  0  0  0  0  0  0  0  0  0  0  0
   16.2806   -2.4838   17.3541 H   0  0  0  0  0  0  0  0  0  0  0  0
   16.1937   -0.6715   17.3268 H   0  0  0  0  0  0  0  0  0  0  0  0
   13.4953   -2.3981   14.0494 H   0  0  0  0  0  0  0  0  0  0  0  0
   10.9974   -2.7465   14.3125 H   0  0  0  0  0  0  0  0  0  0  0  0
    8.7310   -1.5371   15.0946 H   0  0  0  0  0  0  0  0  0  0  0  0
    8.2558    0.9829   16.1491 H   0  0  0  0  0  0  0  0  0  0  0  0
   17.0176   -1.8417   14.3108 H   0  0  0  0  0  0  0  0  0  0  0  0
   17.1798   -4.0134   14.6394 H   0  0  0  0  0  0  0  0  0  0  0  0
   17.0672   -3.9607   16.3997 H   0  0  0  0  0  0  0  0  0  0  0  0
   19.4026   -3.9775   15.9751 H   0  0  0  0  0  0  0  0  0  0  0  0
   19.3602   -2.8527   14.6453 H   0  0  0  0  0  0  0  0  0  0  0  0
   18.9701   -0.0909   19.1326 H   0  0  0  0  0  0  0  0  0  0  0  0
   20.1614   -0.1200   17.8329 H   0  0  0  0  0  0  0  0  0  0  0  0
   21.4831   -3.1465   18.3684 H   0  0  0  0  0  0  0  0  0  0  0  0
   22.9130   -2.5490   19.2241 H   0  0  0  0  0  0  0  0  0  0  0  0
   22.3071   -1.6569   17.8167 H   0  0  0  0  0  0  0  0  0  0  0  0
   18.7490   -0.8124   14.9279 H   0  0  0  0  0  0  0  0  0  0  0  0
   17.9744   -0.3077   16.3842 H   0  0  0  0  0  0  0  0  0  0  0  0
  1  2  1  0
  2  3  1  0
  3  4  1  0
  4  5  2  0
  4  6  1  0
  6  7  1  0
  7  8  2  0
  8  9  1  0
  9 10  1  0
 10 11  2  0
 11 12  1  0
 12 13  2  0
 13 14  1  0
  3 15  1  0
 15 16  1  0
 16 17  1  0
 17 18  1  0
 18 19  1  0
 19 20  2  0
 19 21  1  0
 21 22  1  0
 22 23  1  0
 18 24  1  0
 14  6  2  0
 24 15  1  0
 13  9  1  0
  1 25  1  0
  1 26  1  0
  1 27  1  0
  2 28  1  0
  2 29  1  0
  7 30  1  0
  8 31  1  0
 10 32  1  0
 11 33  1  0
 15 34  1  0
 16 35  1  0
 16 36  1  0
 17 37  1  0
 17 38  1  0
 21 39  1  0
 21 40  1  0
 23 41  1  0
 23 42  1  0
 23 43  1  0
 24 44  1  0
 24 45  1  0
M  END
>  <Energy>  (972) 
240.38482176976473

>  <compound_id>  (972) 
8805

>  <target_id>  (972) 
1

>  <reference_id>  (972) 
106

>  <inspiration_ids>  (972) 
[124, 106]

>  <energy_score>  (972) 
114.81491519224747

>  <distance_score>  (972) 
3.526205039498159

>  <path>  (972) 
/opt/xchem-fragalysis-2/maxwin/BulkDock/SCRATCH/511014/C8805-P106/C8805-P106.minimised.mol

>  <scratch_subdir>  (972) 
/opt/xchem-fragalysis-2/maxwin/BulkDock/SCRATCH/511014/C8805-P106

>  <fragmenstein_runtime>  (972) 
5.779118061065674

>  <fragmenstein_outcome>  (972) 
too moved

>  <fragmenstein_mode>  (972) 
expansion

>  <fragmenstein_error>  (972) 


$$$$
C8806-P124
     RDKit          3D

 41 43  0  0  0  0  0  0  0  0999 V2000
   15.2376   -2.1966   20.0297 C   0  0  0  0  0  0  0  0  0  0  0  0
   16.4479   -2.5660   19.1534 C   0  0  0  0  0  0  0  0  0  0  0  0
   17.1150   -1.4476   18.3251 N   0  0  0  0  0  0  0  0  0  0  0  0
   16.1361   -0.5315   17.8675 C   0  0  0  0  0  0  0  0  0  0  0  0
   15.7162    0.4766   18.3643 O   0  0  0  0  0  0  0  0  0  0  0  0
   15.5110   -0.9464   16.5641 C   0  0  0  0  0  0  0  0  0  0  0  0
   16.0401   -0.2617   15.3500 C   0  0  0  0  0  0  0  0  0  0  0  0
   15.3327   -0.4867   14.2366 C   0  0  0  0  0  0  0  0  0  0  0  0
   14.2130   -1.2984   14.3107 N   0  0  0  0  0  0  0  0  0  0  0  0
   13.2843   -1.5864   13.3582 C   0  0  0  0  0  0  0  0  0  0  0  0
   12.3226   -2.3288   14.0016 C   0  0  0  0  0  0  0  0  0  0  0  0
   12.6693   -2.5564   15.3053 N   0  0  0  0  0  0  0  0  0  0  0  0
   13.8197   -1.9425   15.4777 C   0  0  0  0  0  0  0  0  0  0  0  0
   14.5249   -1.7883   16.6278 N   0  0  0  0  0  0  0  0  0  0  0  0
   18.0202   -1.3953   19.5188 C   0  0  0  0  0  0  0  0  0  0  0  0
   19.2236   -2.2973   19.5444 C   0  0  0  0  0  0  0  0  0  0  0  0
   20.3573   -1.2854   19.6271 C   0  0  0  0  0  0  0  0  0  0  0  0
   19.9905    0.0103   20.2851 N   0  0  0  0  0  0  0  0  0  0  0  0
   19.5186    0.2881   21.6134 C   0  0  0  0  0  0  0  0  0  0  0  0
   19.2132   -0.4609   22.5084 O   0  0  0  0  0  0  0  0  0  0  0  0
   19.3158    1.8150   21.7787 C   0  0  0  0  0  0  0  0  0  0  0  0
   18.1069    2.2213   21.2808 F   0  0  0  0  0  0  0  0  0  0  0  0
   20.2567    2.5529   21.1193 F   0  0  0  0  0  0  0  0  0  0  0  0
   18.8393   -0.0888   19.3355 C   0  0  0  0  0  0  0  0  0  0  0  0
   15.5058   -1.5427   20.8637 H   0  0  0  0  0  0  0  0  0  0  0  0
   14.4594   -1.6938   19.4545 H   0  0  0  0  0  0  0  0  0  0  0  0
   14.7972   -3.1073   20.4493 H   0  0  0  0  0  0  0  0  0  0  0  0
   16.0078   -3.1867   18.3561 H   0  0  0  0  0  0  0  0  0  0  0  0
   17.0929   -3.3153   19.6397 H   0  0  0  0  0  0  0  0  0  0  0  0
   16.9057    0.3817   15.4140 H   0  0  0  0  0  0  0  0  0  0  0  0
   15.5672   -0.0387   13.2798 H   0  0  0  0  0  0  0  0  0  0  0  0
   13.3859   -1.2269   12.3485 H   0  0  0  0  0  0  0  0  0  0  0  0
   11.4087   -2.7379   13.5943 H   0  0  0  0  0  0  0  0  0  0  0  0
   17.5357   -1.2546   20.4966 H   0  0  0  0  0  0  0  0  0  0  0  0
   19.3274   -2.9416   18.6654 H   0  0  0  0  0  0  0  0  0  0  0  0
   19.2101   -2.9332   20.4371 H   0  0  0  0  0  0  0  0  0  0  0  0
   21.1517   -1.7148   20.2520 H   0  0  0  0  0  0  0  0  0  0  0  0
   20.8360   -1.0949   18.6527 H   0  0  0  0  0  0  0  0  0  0  0  0
   19.3642    2.0789   22.8388 H   0  0  0  0  0  0  0  0  0  0  0  0
   19.1667    0.0979   18.2955 H   0  0  0  0  0  0  0  0  0  0  0  0
   18.1697    0.7569   19.5381 H   0  0  0  0  0  0  0  0  0  0  0  0
  1  2  1  0
  2  3  1  0
  3  4  1  0
  4  5  2  0
  4  6  1  0
  6  7  1  0
  7  8  2  0
  8  9  1  0
  9 10  1  0
 10 11  2  0
 11 12  1  0
 12 13  2  0
 13 14  1  0
  3 15  1  0
 15 16  1  0
 16 17  1  0
 17 18  1  0
 18 19  1  0
 19 20  2  0
 19 21  1  0
 21 22  1  0
 21 23  1  0
 18 24  1  0
 14  6  2  0
 24 15  1  0
 13  9  1  0
  1 25  1  0
  1 26  1  0
  1 27  1  0
  2 28  1  0
  2 29  1  0
  7 30  1  0
  8 31  1  0
 10 32  1  0
 11 33  1  0
 15 34  1  0
 16 35  1  0
 16 36  1  0
 17 37  1  0
 17 38  1  0
 21 39  1  0
 24 40  1  0
 24 41  1  0
M  END
>  <Energy>  (973) 
258.92612074004779

>  <compound_id>  (973) 
8806

>  <target_id>  (973) 
1

>  <reference_id>  (973) 
124

>  <inspiration_ids>  (973) 
[124, 106]

>  <energy_score>  (973) 
88.3204340949884

>  <distance_score>  (973) 
4.937292344124871

>  <path>  (973) 
/opt/xchem-fragalysis-2/maxwin/BulkDock/SCRATCH/511014/C8806-P124/C8806-P124.minimised.mol

>  <scratch_subdir>  (973) 
/opt/xchem-fragalysis-2/maxwin/BulkDock/SCRATCH/511014/C8806-P124

>  <fragmenstein_runtime>  (973) 
4.959990978240967

>  <fragmenstein_outcome>  (973) 
too moved

>  <fragmenstein_mode>  (973) 
expansion

>  <fragmenstein_error>  (973) 


$$$$
C8806-P106
     RDKit          3D

 41 43  0  0  0  0  0  0  0  0999 V2000
   14.7036   -1.5973   18.1717 C   0  0  0  0  0  0  0  0  0  0  0  0
   15.2589   -0.4203   17.3520 C   0  0  0  0  0  0  0  0  0  0  0  0
   15.3588   -0.8389   15.8793 N   0  0  0  0  0  0  0  0  0  0  0  0
   14.6887    0.1096   15.0559 C   0  0  0  0  0  0  0  0  0  0  0  0
   15.0963    1.0941   14.5102 O   0  0  0  0  0  0  0  0  0  0  0  0
   13.2027   -0.2141   15.0011 C   0  0  0  0  0  0  0  0  0  0  0  0
   12.8403   -1.5654   14.4813 C   0  0  0  0  0  0  0  0  0  0  0  0
   11.5469   -1.8836   14.6112 C   0  0  0  0  0  0  0  0  0  0  0  0
   10.6667   -0.9432   15.1264 N   0  0  0  0  0  0  0  0  0  0  0  0
    9.3140   -1.0094   15.3322 C   0  0  0  0  0  0  0  0  0  0  0  0
    8.9695    0.1989   15.8764 C   0  0  0  0  0  0  0  0  0  0  0  0
   10.0581    1.0036   16.0156 N   0  0  0  0  0  0  0  0  0  0  0  0
   11.0793    0.3183   15.5433 C   0  0  0  0  0  0  0  0  0  0  0  0
   12.3888    0.6740   15.4920 N   0  0  0  0  0  0  0  0  0  0  0  0
   16.8244   -0.9742   16.2389 C   0  0  0  0  0  0  0  0  0  0  0  0
   17.5109   -1.8456   15.2107 C   0  0  0  0  0  0  0  0  0  0  0  0
   18.7338   -1.0005   14.8799 C   0  0  0  0  0  0  0  0  0  0  0  0
   19.1578   -0.0591   15.9714 N   0  0  0  0  0  0  0  0  0  0  0  0
   19.5909   -0.3172   17.3198 C   0  0  0  0  0  0  0  0  0  0  0  0
   19.6378   -1.3480   17.9421 O   0  0  0  0  0  0  0  0  0  0  0  0
   19.9948    1.0268   17.9747 C   0  0  0  0  0  0  0  0  0  0  0  0
   18.8989    1.7995   18.2507 F   0  0  0  0  0  0  0  0  0  0  0  0
   20.6400    0.8601   19.1642 F   0  0  0  0  0  0  0  0  0  0  0  0
   17.6904    0.2736   15.9484 C   0  0  0  0  0  0  0  0  0  0  0  0
   14.5034   -1.2754   19.1982 H   0  0  0  0  0  0  0  0  0  0  0  0
   13.7690   -1.9650   17.7355 H   0  0  0  0  0  0  0  0  0  0  0  0
   15.4015   -2.4389   18.2114 H   0  0  0  0  0  0  0  0  0  0  0  0
   14.4618    0.3386   17.3922 H   0  0  0  0  0  0  0  0  0  0  0  0
   16.0719    0.1123   17.8715 H   0  0  0  0  0  0  0  0  0  0  0  0
   13.6011   -2.2110   14.0712 H   0  0  0  0  0  0  0  0  0  0  0  0
   11.1376   -2.8369   14.3016 H   0  0  0  0  0  0  0  0  0  0  0  0
    8.7318   -1.8683   15.0320 H   0  0  0  0  0  0  0  0  0  0  0  0
    7.9896    0.5382   16.1685 H   0  0  0  0  0  0  0  0  0  0  0  0
   17.0660   -1.4885   17.1852 H   0  0  0  0  0  0  0  0  0  0  0  0
   16.9191   -2.0499   14.3118 H   0  0  0  0  0  0  0  0  0  0  0  0
   17.8001   -2.8098   15.6450 H   0  0  0  0  0  0  0  0  0  0  0  0
   19.5857   -1.6780   14.7345 H   0  0  0  0  0  0  0  0  0  0  0  0
   18.6381   -0.4578   13.9256 H   0  0  0  0  0  0  0  0  0  0  0  0
   20.6564    1.5870   17.3076 H   0  0  0  0  0  0  0  0  0  0  0  0
   17.4377    0.8137   15.0210 H   0  0  0  0  0  0  0  0  0  0  0  0
   17.5128    1.0271   16.7215 H   0  0  0  0  0  0  0  0  0  0  0  0
  1  2  1  0
  2  3  1  0
  3  4  1  0
  4  5  2  0
  4  6  1  0
  6  7  1  0
  7  8  2  0
  8  9  1  0
  9 10  1  0
 10 11  2  0
 11 12  1  0
 12 13  2  0
 13 14  1  0
  3 15  1  0
 15 16  1  0
 16 17  1  0
 17 18  1  0
 18 19  1  0
 19 20  2  0
 19 21  1  0
 21 22  1  0
 21 23  1  0
 18 24  1  0
 14  6  2  0
 24 15  1  0
 13  9  1  0
  1 25  1  0
  1 26  1  0
  1 27  1  0
  2 28  1  0
  2 29  1  0
  7 30  1  0
  8 31  1  0
 10 32  1  0
 11 33  1  0
 15 34  1  0
 16 35  1  0
 16 36  1  0
 17 37  1  0
 17 38  1  0
 21 39  1  0
 24 40  1  0
 24 41  1  0
M  END
>  <Energy>  (974) 
260.00721153620452

>  <compound_id>  (974) 
8806

>  <target_id>  (974) 
1

>  <reference_id>  (974) 
106

>  <inspiration_ids>  (974) 
[124, 106]

>  <energy_score>  (974) 
89.40152489113791

>  <distance_score>  (974) 
3.594047721342332

>  <path>  (974) 
/opt/xchem-fragalysis-2/maxwin/BulkDock/SCRATCH/511014/C8806-P106/C8806-P106.minimised.mol

>  <scratch_subdir>  (974) 
/opt/xchem-fragalysis-2/maxwin/BulkDock/SCRATCH/511014/C8806-P106

>  <fragmenstein_runtime>  (974) 
4.6410558223724365

>  <fragmenstein_outcome>  (974) 
too moved

>  <fragmenstein_mode>  (974) 
expansion

>  <fragmenstein_error>  (974) 


$$$$
C8807-P124
     RDKit          3D

 40 43  0  0  0  0  0  0  0  0999 V2000
   13.1478   -3.3807   16.4527 C   0  0  0  0  0  0  0  0  0  0  0  0
   12.5519   -2.5224   15.4944 O   0  0  0  0  0  0  0  0  0  0  0  0
   13.2563   -1.4204   15.1056 C   0  0  0  0  0  0  0  0  0  0  0  0
   12.8330   -0.8381   13.9304 C   0  0  0  0  0  0  0  0  0  0  0  0
   13.3619    0.3911   13.5514 C   0  0  0  0  0  0  0  0  0  0  0  0
   14.2663    1.0870   14.3763 C   0  0  0  0  0  0  0  0  0  0  0  0
   14.6809    0.5384   15.5917 C   0  0  0  0  0  0  0  0  0  0  0  0
   15.4111    1.3351   16.6706 C   0  0  0  0  0  0  0  0  0  0  0  0
   16.1721    2.5976   16.2706 C   0  0  0  0  0  0  0  0  0  0  0  0
   16.9121    2.9279   17.5622 C   0  0  0  0  0  0  0  0  0  0  0  0
   17.2228    1.5695   18.2014 C   0  0  0  0  0  0  0  0  0  0  0  0
   16.4000    0.5929   17.4873 N   0  0  0  0  0  0  0  0  0  0  0  0
   17.0154   -0.5200   16.9369 C   0  0  0  0  0  0  0  0  0  0  0  0
   17.9714   -0.3597   15.7741 C   0  0  0  0  0  0  0  0  0  0  0  0
   18.2780   -1.4729   15.0993 C   0  0  0  0  0  0  0  0  0  0  0  0
   17.7472   -2.6689   15.5269 N   0  0  0  0  0  0  0  0  0  0  0  0
   17.8472   -3.9050   14.9684 C   0  0  0  0  0  0  0  0  0  0  0  0
   17.0037   -4.6834   15.7149 C   0  0  0  0  0  0  0  0  0  0  0  0
   16.4679   -3.9942   16.7625 N   0  0  0  0  0  0  0  0  0  0  0  0
   16.9516   -2.7751   16.6588 C   0  0  0  0  0  0  0  0  0  0  0  0
   16.6556   -1.6861   17.4145 N   0  0  0  0  0  0  0  0  0  0  0  0
   14.2063   -0.7560   15.8851 C   0  0  0  0  0  0  0  0  0  0  0  0
   13.2797   -2.8979   17.4216 H   0  0  0  0  0  0  0  0  0  0  0  0
   12.4773   -4.2326   16.6007 H   0  0  0  0  0  0  0  0  0  0  0  0
   14.0952   -3.7665   16.0799 H   0  0  0  0  0  0  0  0  0  0  0  0
   12.0583   -1.3171   13.3412 H   0  0  0  0  0  0  0  0  0  0  0  0
   13.0111    0.8580   12.6343 H   0  0  0  0  0  0  0  0  0  0  0  0
   14.5706    2.0857   14.0761 H   0  0  0  0  0  0  0  0  0  0  0  0
   14.6319    1.6607   17.3689 H   0  0  0  0  0  0  0  0  0  0  0  0
   15.5105    3.4127   15.9610 H   0  0  0  0  0  0  0  0  0  0  0  0
   16.8790    2.4083   15.4561 H   0  0  0  0  0  0  0  0  0  0  0  0
   17.8155    3.5190   17.3847 H   0  0  0  0  0  0  0  0  0  0  0  0
   16.2624    3.5078   18.2288 H   0  0  0  0  0  0  0  0  0  0  0  0
   18.2918    1.3437   18.1136 H   0  0  0  0  0  0  0  0  0  0  0  0
   16.9684    1.5731   19.2664 H   0  0  0  0  0  0  0  0  0  0  0  0
   18.3335    0.6192   15.5029 H   0  0  0  0  0  0  0  0  0  0  0  0
   18.9129   -1.4842   14.2242 H   0  0  0  0  0  0  0  0  0  0  0  0
   18.4296   -4.1076   14.0826 H   0  0  0  0  0  0  0  0  0  0  0  0
   16.7781   -5.7264   15.5409 H   0  0  0  0  0  0  0  0  0  0  0  0
   14.4642   -1.1868   16.8479 H   0  0  0  0  0  0  0  0  0  0  0  0
  1  2  1  0
  2  3  1  0
  3  4  2  0
  4  5  1  0
  5  6  2  0
  6  7  1  0
  7  8  1  0
  8  9  1  0
  9 10  1  0
 10 11  1  0
 11 12  1  0
 12 13  1  0
 13 14  1  0
 14 15  2  0
 15 16  1  0
 16 17  1  0
 17 18  2  0
 18 19  1  0
 19 20  2  0
 20 21  1  0
  7 22  2  0
 22  3  1  0
 12  8  1  0
 21 13  2  0
 20 16  1  0
  1 23  1  0
  1 24  1  0
  1 25  1  0
  4 26  1  0
  5 27  1  0
  6 28  1  0
  8 29  1  0
  9 30  1  0
  9 31  1  0
 10 32  1  0
 10 33  1  0
 11 34  1  0
 11 35  1  0
 14 36  1  0
 15 37  1  0
 17 38  1  0
 18 39  1  0
 22 40  1  0
M  END
>  <Energy>  (975) 
45.729791063922654

>  <compound_id>  (975) 
8807

>  <target_id>  (975) 
1

>  <reference_id>  (975) 
124

>  <inspiration_ids>  (975) 
[124, 106]

>  <energy_score>  (975) 
-7.985534088081664

>  <distance_score>  (975) 
2.430156050239225

>  <path>  (975) 
/opt/xchem-fragalysis-2/maxwin/BulkDock/SCRATCH/511014/C8807-P124/C8807-P124.minimised.mol

>  <scratch_subdir>  (975) 
/opt/xchem-fragalysis-2/maxwin/BulkDock/SCRATCH/511014/C8807-P124

>  <fragmenstein_runtime>  (975) 
26.12938094139099

>  <fragmenstein_outcome>  (975) 
too moved

>  <fragmenstein_mode>  (975) 
expansion

>  <fragmenstein_error>  (975) 


$$$$
C8807-P106
     RDKit          3D

 40 43  0  0  0  0  0  0  0  0999 V2000
   12.8498   -3.2780   16.6074 C   0  0  0  0  0  0  0  0  0  0  0  0
   11.8544   -2.3570   16.1742 O   0  0  0  0  0  0  0  0  0  0  0  0
   12.3094   -1.0932   15.9559 C   0  0  0  0  0  0  0  0  0  0  0  0
   11.7909   -0.4374   14.8556 C   0  0  0  0  0  0  0  0  0  0  0  0
   12.1814    0.8699   14.5999 C   0  0  0  0  0  0  0  0  0  0  0  0
   13.0679    1.5428   15.4578 C   0  0  0  0  0  0  0  0  0  0  0  0
   13.5815    0.9032   16.5896 C   0  0  0  0  0  0  0  0  0  0  0  0
   14.4571    1.5691   17.6340 C   0  0  0  0  0  0  0  0  0  0  0  0
   14.9330    3.0003   17.3828 C   0  0  0  0  0  0  0  0  0  0  0  0
   15.9486    3.1755   18.5029 C   0  0  0  0  0  0  0  0  0  0  0  0
   16.6389    1.8130   18.5845 C   0  0  0  0  0  0  0  0  0  0  0  0
   15.7118    0.8650   17.9704 N   0  0  0  0  0  0  0  0  0  0  0  0
   16.2095   -0.1604   17.1855 C   0  0  0  0  0  0  0  0  0  0  0  0
   16.8773    0.1471   15.8616 C   0  0  0  0  0  0  0  0  0  0  0  0
   17.2507   -0.9024   15.1160 C   0  0  0  0  0  0  0  0  0  0  0  0
   16.9942   -2.1729   15.5864 N   0  0  0  0  0  0  0  0  0  0  0  0
   17.2135   -3.3831   14.9974 C   0  0  0  0  0  0  0  0  0  0  0  0
   16.6135   -4.2845   15.8372 C   0  0  0  0  0  0  0  0  0  0  0  0
   16.1281   -3.6810   16.9587 N   0  0  0  0  0  0  0  0  0  0  0  0
   16.3835   -2.4017   16.8103 C   0  0  0  0  0  0  0  0  0  0  0  0
   16.0487   -1.3790   17.6362 N   0  0  0  0  0  0  0  0  0  0  0  0
   13.1753   -0.4230   16.8146 C   0  0  0  0  0  0  0  0  0  0  0  0
   12.4226   -4.2830   16.5455 H   0  0  0  0  0  0  0  0  0  0  0  0
   13.7177   -3.2418   15.9464 H   0  0  0  0  0  0  0  0  0  0  0  0
   13.1324   -3.1053   17.6497 H   0  0  0  0  0  0  0  0  0  0  0  0
   11.0960   -0.9449   14.1940 H   0  0  0  0  0  0  0  0  0  0  0  0
   11.7815    1.3825   13.7284 H   0  0  0  0  0  0  0  0  0  0  0  0
   13.3235    2.5742   15.2311 H   0  0  0  0  0  0  0  0  0  0  0  0
   13.8493    1.5895   18.5511 H   0  0  0  0  0  0  0  0  0  0  0  0
   14.1231    3.7341   17.4372 H   0  0  0  0  0  0  0  0  0  0  0  0
   15.4263    3.0975   16.4081 H   0  0  0  0  0  0  0  0  0  0  0  0
   16.6534    3.9897   18.3114 H   0  0  0  0  0  0  0  0  0  0  0  0
   15.4340    3.3901   19.4474 H   0  0  0  0  0  0  0  0  0  0  0  0
   17.5919    1.8477   18.0441 H   0  0  0  0  0  0  0  0  0  0  0  0
   16.8477    1.5358   19.6227 H   0  0  0  0  0  0  0  0  0  0  0  0
   17.0115    1.1756   15.5631 H   0  0  0  0  0  0  0  0  0  0  0  0
   17.7211   -0.8079   14.1471 H   0  0  0  0  0  0  0  0  0  0  0  0
   17.6872   -3.4924   14.0338 H   0  0  0  0  0  0  0  0  0  0  0  0
   16.5114   -5.3512   15.6880 H   0  0  0  0  0  0  0  0  0  0  0  0
   13.5418   -0.9322   17.7031 H   0  0  0  0  0  0  0  0  0  0  0  0
  1  2  1  0
  2  3  1  0
  3  4  2  0
  4  5  1  0
  5  6  2  0
  6  7  1  0
  7  8  1  0
  8  9  1  0
  9 10  1  0
 10 11  1  0
 11 12  1  0
 12 13  1  0
 13 14  1  0
 14 15  2  0
 15 16  1  0
 16 17  1  0
 17 18  2  0
 18 19  1  0
 19 20  2  0
 20 21  1  0
  7 22  2  0
 22  3  1  0
 12  8  1  0
 21 13  2  0
 20 16  1  0
  1 23  1  0
  1 24  1  0
  1 25  1  0
  4 26  1  0
  5 27  1  0
  6 28  1  0
  8 29  1  0
  9 30  1  0
  9 31  1  0
 10 32  1  0
 10 33  1  0
 11 34  1  0
 11 35  1  0
 14 36  1  0
 15 37  1  0
 17 38  1  0
 18 39  1  0
 22 40  1  0
M  END
>  <Energy>  (976) 
36.680645083069386

>  <compound_id>  (976) 
8807

>  <target_id>  (976) 
1

>  <reference_id>  (976) 
106

>  <inspiration_ids>  (976) 
[124, 106]

>  <energy_score>  (976) 
-17.034680068934335

>  <distance_score>  (976) 
2.162830084716679

>  <path>  (976) 
/opt/xchem-fragalysis-2/maxwin/BulkDock/SCRATCH/511014/C8807-P106/C8807-P106.minimised.mol

>  <scratch_subdir>  (976) 
/opt/xchem-fragalysis-2/maxwin/BulkDock/SCRATCH/511014/C8807-P106

>  <fragmenstein_runtime>  (976) 
26.28606128692627

>  <fragmenstein_outcome>  (976) 
too moved

>  <fragmenstein_mode>  (976) 
expansion

>  <fragmenstein_error>  (976) 


$$$$
C8808-P124
     RDKit          3D

 39 42  0  0  0  0  0  0  0  0999 V2000
   12.8586   -0.0102   13.6836 C   0  0  0  0  0  0  0  0  0  0  0  0
   12.7322   -1.2816   14.3210 O   0  0  0  0  0  0  0  0  0  0  0  0
   13.6996   -1.4763   15.2686 C   0  0  0  0  0  0  0  0  0  0  0  0
   13.5526   -2.5233   16.1602 C   0  0  0  0  0  0  0  0  0  0  0  0
   14.1229   -2.3642   17.4269 C   0  0  0  0  0  0  0  0  0  0  0  0
   14.7607   -1.1566   17.7513 C   0  0  0  0  0  0  0  0  0  0  0  0
   15.0341   -0.6818   19.1832 C   0  0  0  0  0  0  0  0  0  0  0  0
   15.3440    0.8321   19.3208 C   0  0  0  0  0  0  0  0  0  0  0  0
   16.8652    0.9482   19.0737 C   0  0  0  0  0  0  0  0  0  0  0  0
   17.3618   -0.4431   19.1232 N   0  0  0  0  0  0  0  0  0  0  0  0
   17.7861   -1.1003   17.9562 C   0  0  0  0  0  0  0  0  0  0  0  0
   18.4739   -0.4029   16.8055 C   0  0  0  0  0  0  0  0  0  0  0  0
   18.5167   -1.0770   15.6429 C   0  0  0  0  0  0  0  0  0  0  0  0
   17.9850   -2.3510   15.5836 N   0  0  0  0  0  0  0  0  0  0  0  0
   17.8585   -3.2169   14.5407 C   0  0  0  0  0  0  0  0  0  0  0  0
   17.1793   -4.2865   15.0662 C   0  0  0  0  0  0  0  0  0  0  0  0
   16.9097   -4.1246   16.3851 N   0  0  0  0  0  0  0  0  0  0  0  0
   17.4659   -2.9797   16.6959 C   0  0  0  0  0  0  0  0  0  0  0  0
   17.4692   -2.3721   17.8944 N   0  0  0  0  0  0  0  0  0  0  0  0
   16.3051   -1.1996   19.8549 C   0  0  0  0  0  0  0  0  0  0  0  0
   15.0368   -0.3215   16.6795 C   0  0  0  0  0  0  0  0  0  0  0  0
   14.5555   -0.4696   15.4517 N   0  0  0  0  0  0  0  0  0  0  0  0
   11.9102    0.1998   13.1803 H   0  0  0  0  0  0  0  0  0  0  0  0
   13.0607    0.8333   14.3499 H   0  0  0  0  0  0  0  0  0  0  0  0
   13.6360   -0.0640   12.9129 H   0  0  0  0  0  0  0  0  0  0  0  0
   12.8934   -3.3565   15.9475 H   0  0  0  0  0  0  0  0  0  0  0  0
   13.9622   -3.1283   18.1834 H   0  0  0  0  0  0  0  0  0  0  0  0
   14.1749   -0.9394   19.8046 H   0  0  0  0  0  0  0  0  0  0  0  0
   15.1308    1.1539   20.3494 H   0  0  0  0  0  0  0  0  0  0  0  0
   14.7616    1.4883   18.6687 H   0  0  0  0  0  0  0  0  0  0  0  0
   17.0833    1.4558   18.1308 H   0  0  0  0  0  0  0  0  0  0  0  0
   17.3331    1.5319   19.8741 H   0  0  0  0  0  0  0  0  0  0  0  0
   18.8750    0.5895   16.9421 H   0  0  0  0  0  0  0  0  0  0  0  0
   18.9489   -0.6730   14.7376 H   0  0  0  0  0  0  0  0  0  0  0  0
   18.2231   -3.0040   13.5474 H   0  0  0  0  0  0  0  0  0  0  0  0
   16.9014   -5.2033   14.5753 H   0  0  0  0  0  0  0  0  0  0  0  0
   16.3959   -2.2905   19.8465 H   0  0  0  0  0  0  0  0  0  0  0  0
   16.3391   -0.9080   20.9140 H   0  0  0  0  0  0  0  0  0  0  0  0
   15.6050    0.5938   16.7720 H   0  0  0  0  0  0  0  0  0  0  0  0
  1  2  1  0
  2  3  1  0
  3  4  2  0
  4  5  1  0
  5  6  2  0
  6  7  1  0
  7  8  1  0
  8  9  1  0
  9 10  1  0
 10 11  1  0
 11 12  1  0
 12 13  2  0
 13 14  1  0
 14 15  1  0
 15 16  2  0
 16 17  1  0
 17 18  2  0
 18 19  1  0
 10 20  1  0
  6 21  1  0
 21 22  2  0
 22  3  1  0
 20  7  1  0
 19 11  2  0
 18 14  1  0
  1 23  1  0
  1 24  1  0
  1 25  1  0
  4 26  1  0
  5 27  1  0
  7 28  1  0
  8 29  1  0
  8 30  1  0
  9 31  1  0
  9 32  1  0
 12 33  1  0
 13 34  1  0
 15 35  1  0
 16 36  1  0
 20 37  1  0
 20 38  1  0
 21 39  1  0
M  END
>  <Energy>  (977) 
49.604936059119588

>  <compound_id>  (977) 
8808

>  <target_id>  (977) 
1

>  <reference_id>  (977) 
124

>  <inspiration_ids>  (977) 
[124, 106]

>  <energy_score>  (977) 
-1.8977610902254156

>  <distance_score>  (977) 
3.1315447049392993

>  <path>  (977) 
/opt/xchem-fragalysis-2/maxwin/BulkDock/SCRATCH/511014/C8808-P124/C8808-P124.minimised.mol

>  <scratch_subdir>  (977) 
/opt/xchem-fragalysis-2/maxwin/BulkDock/SCRATCH/511014/C8808-P124

>  <fragmenstein_runtime>  (977) 
23.51717758178711

>  <fragmenstein_outcome>  (977) 
too moved

>  <fragmenstein_mode>  (977) 
expansion

>  <fragmenstein_error>  (977) 


$$$$
C8808-P106
     RDKit          3D

 39 42  0  0  0  0  0  0  0  0999 V2000
   11.1316    2.0973   15.9116 C   0  0  0  0  0  0  0  0  0  0  0  0
   10.4166    0.9630   15.3918 O   0  0  0  0  0  0  0  0  0  0  0  0
   11.3248    0.0174   14.9348 C   0  0  0  0  0  0  0  0  0  0  0  0
   11.3840   -1.1032   15.7315 C   0  0  0  0  0  0  0  0  0  0  0  0
   12.6195   -1.3800   16.2789 C   0  0  0  0  0  0  0  0  0  0  0  0
   13.6863   -0.5749   15.9031 C   0  0  0  0  0  0  0  0  0  0  0  0
   14.9350   -0.3970   16.6864 C   0  0  0  0  0  0  0  0  0  0  0  0
   15.6341    0.9947   16.5780 C   0  0  0  0  0  0  0  0  0  0  0  0
   16.4312    1.1600   17.8865 C   0  0  0  0  0  0  0  0  0  0  0  0
   16.3142   -0.1555   18.5438 N   0  0  0  0  0  0  0  0  0  0  0  0
   17.1883   -1.1843   18.1237 C   0  0  0  0  0  0  0  0  0  0  0  0
   18.5181   -0.9087   17.4525 C   0  0  0  0  0  0  0  0  0  0  0  0
   18.8773   -1.7852   16.5004 C   0  0  0  0  0  0  0  0  0  0  0  0
   18.0874   -2.8979   16.2913 N   0  0  0  0  0  0  0  0  0  0  0  0
   18.1232   -3.8343   15.3016 C   0  0  0  0  0  0  0  0  0  0  0  0
   16.9740   -4.5639   15.4853 C   0  0  0  0  0  0  0  0  0  0  0  0
   16.3005   -4.1710   16.6006 N   0  0  0  0  0  0  0  0  0  0  0  0
   17.0170   -3.2008   17.1150 C   0  0  0  0  0  0  0  0  0  0  0  0
   16.6836   -2.3972   18.1525 N   0  0  0  0  0  0  0  0  0  0  0  0
   14.8925   -0.5278   18.2277 C   0  0  0  0  0  0  0  0  0  0  0  0
   13.5561    0.1486   14.7368 C   0  0  0  0  0  0  0  0  0  0  0  0
   12.3725    0.5048   14.2615 N   0  0  0  0  0  0  0  0  0  0  0  0
   10.4079    2.7041   16.4639 H   0  0  0  0  0  0  0  0  0  0  0  0
   11.5174    2.7190   15.0962 H   0  0  0  0  0  0  0  0  0  0  0  0
   11.9307    1.8185   16.6061 H   0  0  0  0  0  0  0  0  0  0  0  0
   10.4808   -1.5749   16.0759 H   0  0  0  0  0  0  0  0  0  0  0  0
   12.7200   -2.1273   17.0612 H   0  0  0  0  0  0  0  0  0  0  0  0
   15.6153   -1.1256   16.2362 H   0  0  0  0  0  0  0  0  0  0  0  0
   14.9192    1.8206   16.4820 H   0  0  0  0  0  0  0  0  0  0  0  0
   16.3016    1.0268   15.7092 H   0  0  0  0  0  0  0  0  0  0  0  0
   17.4586    1.4894   17.7125 H   0  0  0  0  0  0  0  0  0  0  0  0
   15.9582    1.9195   18.5211 H   0  0  0  0  0  0  0  0  0  0  0  0
   19.0731   -0.0164   17.6970 H   0  0  0  0  0  0  0  0  0  0  0  0
   19.7559   -1.6658   15.8815 H   0  0  0  0  0  0  0  0  0  0  0  0
   18.8902   -3.8637   14.5431 H   0  0  0  0  0  0  0  0  0  0  0  0
   16.6118   -5.3861   14.8857 H   0  0  0  0  0  0  0  0  0  0  0  0
   14.5932   -1.5172   18.5884 H   0  0  0  0  0  0  0  0  0  0  0  0
   14.2016    0.1961   18.6806 H   0  0  0  0  0  0  0  0  0  0  0  0
   14.3966    0.6237   14.2416 H   0  0  0  0  0  0  0  0  0  0  0  0
  1  2  1  0
  2  3  1  0
  3  4  2  0
  4  5  1  0
  5  6  2  0
  6  7  1  0
  7  8  1  0
  8  9  1  0
  9 10  1  0
 10 11  1  0
 11 12  1  0
 12 13  2  0
 13 14  1  0
 14 15  1  0
 15 16  2  0
 16 17  1  0
 17 18  2  0
 18 19  1  0
 10 20  1  0
  6 21  1  0
 21 22  2  0
 22  3  1  0
 20  7  1  0
 19 11  2  0
 18 14  1  0
  1 23  1  0
  1 24  1  0
  1 25  1  0
  4 26  1  0
  5 27  1  0
  7 28  1  0
  8 29  1  0
  8 30  1  0
  9 31  1  0
  9 32  1  0
 12 33  1  0
 13 34  1  0
 15 35  1  0
 16 36  1  0
 20 37  1  0
 20 38  1  0
 21 39  1  0
M  END
>  <Energy>  (978) 
83.347077844469254

>  <compound_id>  (978) 
8808

>  <target_id>  (978) 
1

>  <reference_id>  (978) 
106

>  <inspiration_ids>  (978) 
[124, 106]

>  <energy_score>  (978) 
31.844380695121913

>  <distance_score>  (978) 
2.768439906397286

>  <path>  (978) 
/opt/xchem-fragalysis-2/maxwin/BulkDock/SCRATCH/511014/C8808-P106/C8808-P106.minimised.mol

>  <scratch_subdir>  (978) 
/opt/xchem-fragalysis-2/maxwin/BulkDock/SCRATCH/511014/C8808-P106

>  <fragmenstein_runtime>  (978) 
24.072264671325684

>  <fragmenstein_outcome>  (978) 
too moved

>  <fragmenstein_mode>  (978) 
expansion

>  <fragmenstein_error>  (978) 


$$$$
C8809-P124
     RDKit          3D

 40 43  0  0  0  0  0  0  0  0999 V2000
   13.4803    2.5440   14.9158 C   0  0  0  0  0  0  0  0  0  0  0  0
   14.4122    1.5336   14.5726 O   0  0  0  0  0  0  0  0  0  0  0  0
   13.9903    0.2712   14.8722 C   0  0  0  0  0  0  0  0  0  0  0  0
   13.1273   -0.3850   13.9906 C   0  0  0  0  0  0  0  0  0  0  0  0
   12.6931   -1.6739   14.2789 C   0  0  0  0  0  0  0  0  0  0  0  0
   13.2069   -2.3320   15.3889 C   0  0  0  0  0  0  0  0  0  0  0  0
   14.1291   -1.6887   16.2298 C   0  0  0  0  0  0  0  0  0  0  0  0
   14.5024   -0.3452   16.0250 C   0  0  0  0  0  0  0  0  0  0  0  0
   15.2108    0.5418   17.0583 C   0  0  0  0  0  0  0  0  0  0  0  0
   16.4861    1.2458   16.5329 C   0  0  0  0  0  0  0  0  0  0  0  0
   17.4201    1.2302   17.7332 C   0  0  0  0  0  0  0  0  0  0  0  0
   17.1021   -0.0659   18.3524 N   0  0  0  0  0  0  0  0  0  0  0  0
   17.5838   -1.2227   17.7185 C   0  0  0  0  0  0  0  0  0  0  0  0
   18.8853   -1.2104   16.9420 C   0  0  0  0  0  0  0  0  0  0  0  0
   19.0531   -2.1916   16.0466 C   0  0  0  0  0  0  0  0  0  0  0  0
   18.1074   -3.1885   15.9737 N   0  0  0  0  0  0  0  0  0  0  0  0
   18.0321   -4.2574   15.1378 C   0  0  0  0  0  0  0  0  0  0  0  0
   16.8560   -4.8721   15.4814 C   0  0  0  0  0  0  0  0  0  0  0  0
   16.2352   -4.2539   16.5226 N   0  0  0  0  0  0  0  0  0  0  0  0
   17.0233   -3.2479   16.8314 C   0  0  0  0  0  0  0  0  0  0  0  0
   16.8111   -2.2802   17.7519 N   0  0  0  0  0  0  0  0  0  0  0  0
   15.6207   -0.0211   18.4445 C   0  0  0  0  0  0  0  0  0  0  0  0
   12.6165    2.5216   14.2453 H   0  0  0  0  0  0  0  0  0  0  0  0
   13.9752    3.5072   14.7515 H   0  0  0  0  0  0  0  0  0  0  0  0
   13.1906    2.5219   15.9660 H   0  0  0  0  0  0  0  0  0  0  0  0
   12.7542    0.1308   13.1120 H   0  0  0  0  0  0  0  0  0  0  0  0
   11.9745   -2.1681   13.6312 H   0  0  0  0  0  0  0  0  0  0  0  0
   12.8933   -3.3466   15.6238 H   0  0  0  0  0  0  0  0  0  0  0  0
   14.4499   -2.2395   17.1093 H   0  0  0  0  0  0  0  0  0  0  0  0
   14.5250    1.3559   17.2958 H   0  0  0  0  0  0  0  0  0  0  0  0
   16.2980    2.2713   16.1994 H   0  0  0  0  0  0  0  0  0  0  0  0
   16.9270    0.6952   15.6932 H   0  0  0  0  0  0  0  0  0  0  0  0
   17.1754    2.0423   18.4299 H   0  0  0  0  0  0  0  0  0  0  0  0
   18.4689    1.3585   17.4559 H   0  0  0  0  0  0  0  0  0  0  0  0
   19.6013   -0.4174   17.0895 H   0  0  0  0  0  0  0  0  0  0  0  0
   19.9117   -2.2603   15.3927 H   0  0  0  0  0  0  0  0  0  0  0  0
   18.7711   -4.4715   14.3809 H   0  0  0  0  0  0  0  0  0  0  0  0
   16.4491   -5.7685   15.0388 H   0  0  0  0  0  0  0  0  0  0  0  0
   15.1398   -0.9571   18.7395 H   0  0  0  0  0  0  0  0  0  0  0  0
   15.3547    0.7019   19.2282 H   0  0  0  0  0  0  0  0  0  0  0  0
  1  2  1  0
  2  3  1  0
  3  4  2  0
  4  5  1  0
  5  6  2  0
  6  7  1  0
  7  8  2  0
  8  9  1  0
  9 10  1  0
 10 11  1  0
 11 12  1  0
 12 13  1  0
 13 14  1  0
 14 15  2  0
 15 16  1  0
 16 17  1  0
 17 18  2  0
 18 19  1  0
 19 20  2  0
 20 21  1  0
 12 22  1  0
  8  3  1  0
 22  9  1  0
 21 13  2  0
 20 16  1  0
  1 23  1  0
  1 24  1  0
  1 25  1  0
  4 26  1  0
  5 27  1  0
  6 28  1  0
  7 29  1  0
  9 30  1  0
 10 31  1  0
 10 32  1  0
 11 33  1  0
 11 34  1  0
 14 35  1  0
 15 36  1  0
 17 37  1  0
 18 38  1  0
 22 39  1  0
 22 40  1  0
M  END
>  <Energy>  (979) 
58.451307716737396

>  <compound_id>  (979) 
8809

>  <target_id>  (979) 
1

>  <reference_id>  (979) 
124

>  <inspiration_ids>  (979) 
[124, 106]

>  <energy_score>  (979) 
-5.658286031774679

>  <distance_score>  (979) 
2.288187108891195

>  <path>  (979) 
/opt/xchem-fragalysis-2/maxwin/BulkDock/SCRATCH/511014/C8809-P124/C8809-P124.minimised.mol

>  <scratch_subdir>  (979) 
/opt/xchem-fragalysis-2/maxwin/BulkDock/SCRATCH/511014/C8809-P124

>  <fragmenstein_runtime>  (979) 
53.59345817565918

>  <fragmenstein_outcome>  (979) 
too moved

>  <fragmenstein_mode>  (979) 
expansion

>  <fragmenstein_error>  (979) 


$$$$
C8809-P106
     RDKit          3D

 40 43  0  0  0  0  0  0  0  0999 V2000
   11.7091    2.2334   16.0930 C   0  0  0  0  0  0  0  0  0  0  0  0
   12.6432    1.4693   15.3496 O   0  0  0  0  0  0  0  0  0  0  0  0
   12.5721    0.1439   15.6804 C   0  0  0  0  0  0  0  0  0  0  0  0
   11.8145   -0.6694   14.8317 C   0  0  0  0  0  0  0  0  0  0  0  0
   11.7504   -2.0349   15.0620 C   0  0  0  0  0  0  0  0  0  0  0  0
   12.4665   -2.5796   16.1178 C   0  0  0  0  0  0  0  0  0  0  0  0
   13.2328   -1.7556   16.9563 C   0  0  0  0  0  0  0  0  0  0  0  0
   13.3077   -0.3665   16.7655 C   0  0  0  0  0  0  0  0  0  0  0  0
   14.0621    0.5921   17.6949 C   0  0  0  0  0  0  0  0  0  0  0  0
   14.9891    1.5812   16.9337 C   0  0  0  0  0  0  0  0  0  0  0  0
   16.2610    1.6590   17.7631 C   0  0  0  0  0  0  0  0  0  0  0  0
   16.3537    0.3111   18.3263 N   0  0  0  0  0  0  0  0  0  0  0  0
   16.8926   -0.7130   17.5388 C   0  0  0  0  0  0  0  0  0  0  0  0
   18.0602   -0.4700   16.6040 C   0  0  0  0  0  0  0  0  0  0  0  0
   18.3614   -1.4538   15.7435 C   0  0  0  0  0  0  0  0  0  0  0  0
   17.6326   -2.6228   15.7893 N   0  0  0  0  0  0  0  0  0  0  0  0
   17.7233   -3.7481   15.0272 C   0  0  0  0  0  0  0  0  0  0  0  0
   16.6907   -4.5383   15.4667 C   0  0  0  0  0  0  0  0  0  0  0  0
   16.0147   -3.9656   16.4980 N   0  0  0  0  0  0  0  0  0  0  0  0
   16.6212   -2.8238   16.7094 C   0  0  0  0  0  0  0  0  0  0  0  0
   16.3117   -1.8822   17.6226 N   0  0  0  0  0  0  0  0  0  0  0  0
   14.9764    0.0578   18.8283 C   0  0  0  0  0  0  0  0  0  0  0  0
   12.1279    2.5572   17.0470 H   0  0  0  0  0  0  0  0  0  0  0  0
   10.7576    1.7112   16.2473 H   0  0  0  0  0  0  0  0  0  0  0  0
   11.4901    3.1379   15.5163 H   0  0  0  0  0  0  0  0  0  0  0  0
   11.2813   -0.2416   13.9859 H   0  0  0  0  0  0  0  0  0  0  0  0
   11.1708   -2.6754   14.4029 H   0  0  0  0  0  0  0  0  0  0  0  0
   12.4571   -3.6544   16.2940 H   0  0  0  0  0  0  0  0  0  0  0  0
   13.7745   -2.2506   17.7595 H   0  0  0  0  0  0  0  0  0  0  0  0
   13.2919    1.1739   18.2084 H   0  0  0  0  0  0  0  0  0  0  0  0
   14.5437    2.5741   16.8190 H   0  0  0  0  0  0  0  0  0  0  0  0
   15.2379    1.2049   15.9334 H   0  0  0  0  0  0  0  0  0  0  0  0
   16.1491    2.3882   18.5752 H   0  0  0  0  0  0  0  0  0  0  0  0
   17.1247    1.9695   17.1703 H   0  0  0  0  0  0  0  0  0  0  0  0
   18.6043    0.4603   16.6517 H   0  0  0  0  0  0  0  0  0  0  0  0
   19.1611   -1.3861   15.0189 H   0  0  0  0  0  0  0  0  0  0  0  0
   18.4528   -3.8741   14.2423 H   0  0  0  0  0  0  0  0  0  0  0  0
   16.4112   -5.5149   15.0976 H   0  0  0  0  0  0  0  0  0  0  0  0
   14.7817   -0.9659   19.1562 H   0  0  0  0  0  0  0  0  0  0  0  0
   14.8366    0.6787   19.7244 H   0  0  0  0  0  0  0  0  0  0  0  0
  1  2  1  0
  2  3  1  0
  3  4  2  0
  4  5  1  0
  5  6  2  0
  6  7  1  0
  7  8  2  0
  8  9  1  0
  9 10  1  0
 10 11  1  0
 11 12  1  0
 12 13  1  0
 13 14  1  0
 14 15  2  0
 15 16  1  0
 16 17  1  0
 17 18  2  0
 18 19  1  0
 19 20  2  0
 20 21  1  0
 12 22  1  0
  8  3  1  0
 22  9  1  0
 21 13  2  0
 20 16  1  0
  1 23  1  0
  1 24  1  0
  1 25  1  0
  4 26  1  0
  5 27  1  0
  6 28  1  0
  7 29  1  0
  9 30  1  0
 10 31  1  0
 10 32  1  0
 11 33  1  0
 11 34  1  0
 14 35  1  0
 15 36  1  0
 17 37  1  0
 18 38  1  0
 22 39  1  0
 22 40  1  0
M  END
>  <Energy>  (980) 
50.92718038874488

>  <compound_id>  (980) 
8809

>  <target_id>  (980) 
1

>  <reference_id>  (980) 
106

>  <inspiration_ids>  (980) 
[124, 106]

>  <energy_score>  (980) 
-13.182413359766485

>  <distance_score>  (980) 
1.9427372786132913

>  <path>  (980) 
/opt/xchem-fragalysis-2/maxwin/BulkDock/SCRATCH/511014/C8809-P106/C8809-P106.minimised.mol

>  <scratch_subdir>  (980) 
/opt/xchem-fragalysis-2/maxwin/BulkDock/SCRATCH/511014/C8809-P106

>  <fragmenstein_runtime>  (980) 
54.76054048538208

>  <fragmenstein_outcome>  (980) 
too moved

>  <fragmenstein_mode>  (980) 
expansion

>  <fragmenstein_error>  (980) 


$$$$
C8810-P124
     RDKit          3D

 37 39  0  0  0  0  0  0  0  0999 V2000
   12.8378   -4.1646   17.1139 C   0  0  0  0  0  0  0  0  0  0  0  0
   14.1728   -3.4651   17.0888 C   0  0  0  0  0  0  0  0  0  0  0  0
   15.1899   -4.1400   17.8486 O   0  0  0  0  0  0  0  0  0  0  0  0
   16.3307   -3.4280   18.1311 C   0  0  0  0  0  0  0  0  0  0  0  0
   16.7927   -3.4071   19.2661 O   0  0  0  0  0  0  0  0  0  0  0  0
   17.0309   -2.7630   16.8940 C   0  0  0  0  0  0  0  0  0  0  0  0
   17.9454   -3.7583   16.1935 C   0  0  0  0  0  0  0  0  0  0  0  0
   19.2456   -3.1361   16.5233 C   0  0  0  0  0  0  0  0  0  0  0  0
   18.7690   -2.0194   17.4092 C   0  0  0  0  0  0  0  0  0  0  0  0
   17.5893   -1.3133   16.8440 N   0  0  0  0  0  0  0  0  0  0  0  0
   16.6327   -0.3375   17.4790 C   0  0  0  0  0  0  0  0  0  0  0  0
   16.5497    0.0304   18.5882 O   0  0  0  0  0  0  0  0  0  0  0  0
   15.6145    0.0892   16.4437 C   0  0  0  0  0  0  0  0  0  0  0  0
   15.6141    1.4384   15.8292 C   0  0  0  0  0  0  0  0  0  0  0  0
   14.6759    1.5950   14.8740 C   0  0  0  0  0  0  0  0  0  0  0  0
   13.8294    0.5360   14.5426 N   0  0  0  0  0  0  0  0  0  0  0  0
   12.8642    0.3877   13.5884 C   0  0  0  0  0  0  0  0  0  0  0  0
   12.3021   -0.8511   13.8170 C   0  0  0  0  0  0  0  0  0  0  0  0
   12.9361   -1.4982   14.8249 N   0  0  0  0  0  0  0  0  0  0  0  0
   13.8743   -0.6673   15.2110 C   0  0  0  0  0  0  0  0  0  0  0  0
   14.7826   -0.8643   16.1773 N   0  0  0  0  0  0  0  0  0  0  0  0
   12.6164   -4.4550   18.1396 H   0  0  0  0  0  0  0  0  0  0  0  0
   12.8556   -5.0702   16.5098 H   0  0  0  0  0  0  0  0  0  0  0  0
   12.0508   -3.5206   16.7155 H   0  0  0  0  0  0  0  0  0  0  0  0
   14.4695   -3.4085   16.0419 H   0  0  0  0  0  0  0  0  0  0  0  0
   14.0256   -2.4943   17.5590 H   0  0  0  0  0  0  0  0  0  0  0  0
   16.2365   -2.6617   16.1609 H   0  0  0  0  0  0  0  0  0  0  0  0
   17.8503   -4.7815   16.5701 H   0  0  0  0  0  0  0  0  0  0  0  0
   17.7852   -3.7741   15.1093 H   0  0  0  0  0  0  0  0  0  0  0  0
   19.7403   -2.7531   15.6238 H   0  0  0  0  0  0  0  0  0  0  0  0
   19.9361   -3.8100   17.0380 H   0  0  0  0  0  0  0  0  0  0  0  0
   18.6539   -2.2705   18.4720 H   0  0  0  0  0  0  0  0  0  0  0  0
   19.5549   -1.2514   17.4360 H   0  0  0  0  0  0  0  0  0  0  0  0
   16.3191    2.1917   16.1477 H   0  0  0  0  0  0  0  0  0  0  0  0
   14.5467    2.5152   14.3184 H   0  0  0  0  0  0  0  0  0  0  0  0
   12.6118    1.1740   12.8934 H   0  0  0  0  0  0  0  0  0  0  0  0
   11.4627   -1.3031   13.3174 H   0  0  0  0  0  0  0  0  0  0  0  0
  1  2  1  0
  2  3  1  0
  3  4  1  0
  4  5  2  0
  4  6  1  0
  6  7  1  0
  7  8  1  0
  8  9  1  0
  9 10  1  0
 10 11  1  0
 11 12  2  0
 11 13  1  0
 13 14  1  0
 14 15  2  0
 15 16  1  0
 16 17  1  0
 17 18  2  0
 18 19  1  0
 19 20  2  0
 20 21  1  0
 10  6  1  0
 21 13  2  0
 20 16  1  0
  1 22  1  0
  1 23  1  0
  1 24  1  0
  2 25  1  0
  2 26  1  0
  6 27  1  0
  7 28  1  0
  7 29  1  0
  8 30  1  0
  8 31  1  0
  9 32  1  0
  9 33  1  0
 14 34  1  0
 15 35  1  0
 17 36  1  0
 18 37  1  0
M  END
>  <Energy>  (981) 
175.07543972658664

>  <compound_id>  (981) 
8810

>  <target_id>  (981) 
1

>  <reference_id>  (981) 
124

>  <inspiration_ids>  (981) 
[124, 106]

>  <energy_score>  (981) 
22.594295875559936

>  <distance_score>  (981) 
2.5445027656692094

>  <path>  (981) 
/opt/xchem-fragalysis-2/maxwin/BulkDock/SCRATCH/511014/C8810-P124/C8810-P124.minimised.mol

>  <scratch_subdir>  (981) 
/opt/xchem-fragalysis-2/maxwin/BulkDock/SCRATCH/511014/C8810-P124

>  <fragmenstein_runtime>  (981) 
3.188538074493408

>  <fragmenstein_outcome>  (981) 
too moved

>  <fragmenstein_mode>  (981) 
expansion

>  <fragmenstein_error>  (981) 


$$$$
C8810-P106
     RDKit          3D

 37 39  0  0  0  0  0  0  0  0999 V2000
   12.6482   -4.2319   16.5928 C   0  0  0  0  0  0  0  0  0  0  0  0
   13.3969   -3.7786   17.8221 C   0  0  0  0  0  0  0  0  0  0  0  0
   14.8274   -3.7684   17.7001 O   0  0  0  0  0  0  0  0  0  0  0  0
   15.3757   -2.9502   16.7609 C   0  0  0  0  0  0  0  0  0  0  0  0
   14.8634   -2.5859   15.7112 O   0  0  0  0  0  0  0  0  0  0  0  0
   16.7896   -2.5452   17.1985 C   0  0  0  0  0  0  0  0  0  0  0  0
   17.6909   -3.4529   16.3635 C   0  0  0  0  0  0  0  0  0  0  0  0
   18.8022   -2.5155   16.1040 C   0  0  0  0  0  0  0  0  0  0  0  0
   18.4180   -1.4572   17.0933 C   0  0  0  0  0  0  0  0  0  0  0  0
   17.0052   -1.0286   16.9176 N   0  0  0  0  0  0  0  0  0  0  0  0
   16.1189   -0.1771   17.7969 C   0  0  0  0  0  0  0  0  0  0  0  0
   16.3159    0.2768   18.8599 O   0  0  0  0  0  0  0  0  0  0  0  0
   14.8399    0.1525   17.0355 C   0  0  0  0  0  0  0  0  0  0  0  0
   14.9939    1.1615   15.9451 C   0  0  0  0  0  0  0  0  0  0  0  0
   13.9457    1.2401   15.1156 C   0  0  0  0  0  0  0  0  0  0  0  0
   12.8494    0.4212   15.3287 N   0  0  0  0  0  0  0  0  0  0  0  0
   11.7425    0.2129   14.5588 C   0  0  0  0  0  0  0  0  0  0  0  0
   11.0133   -0.7515   15.2079 C   0  0  0  0  0  0  0  0  0  0  0  0
   11.6142   -1.0961   16.3818 N   0  0  0  0  0  0  0  0  0  0  0  0
   12.7447   -0.4164   16.4288 C   0  0  0  0  0  0  0  0  0  0  0  0
   13.7623   -0.5115   17.3346 N   0  0  0  0  0  0  0  0  0  0  0  0
   13.0394   -5.2030   16.2961 H   0  0  0  0  0  0  0  0  0  0  0  0
   12.7529   -3.5500   15.7491 H   0  0  0  0  0  0  0  0  0  0  0  0
   11.5824   -4.3310   16.7916 H   0  0  0  0  0  0  0  0  0  0  0  0
   13.0675   -2.7977   18.1495 H   0  0  0  0  0  0  0  0  0  0  0  0
   13.1766   -4.4690   18.6430 H   0  0  0  0  0  0  0  0  0  0  0  0
   16.8536   -2.7240   18.2861 H   0  0  0  0  0  0  0  0  0  0  0  0
   17.2504   -3.8165   15.4284 H   0  0  0  0  0  0  0  0  0  0  0  0
   18.0029   -4.3264   16.9467 H   0  0  0  0  0  0  0  0  0  0  0  0
   19.7902   -2.9425   16.2942 H   0  0  0  0  0  0  0  0  0  0  0  0
   18.7722   -2.1332   15.0777 H   0  0  0  0  0  0  0  0  0  0  0  0
   18.6646   -1.6796   18.1462 H   0  0  0  0  0  0  0  0  0  0  0  0
   19.0077   -0.5545   16.8835 H   0  0  0  0  0  0  0  0  0  0  0  0
   15.9094    1.7259   15.8452 H   0  0  0  0  0  0  0  0  0  0  0  0
   13.9245    1.8882   14.2494 H   0  0  0  0  0  0  0  0  0  0  0  0
   11.5817    0.7214   13.6200 H   0  0  0  0  0  0  0  0  0  0  0  0
   10.0814   -1.2010   14.8909 H   0  0  0  0  0  0  0  0  0  0  0  0
  1  2  1  0
  2  3  1  0
  3  4  1  0
  4  5  2  0
  4  6  1  0
  6  7  1  0
  7  8  1  0
  8  9  1  0
  9 10  1  0
 10 11  1  0
 11 12  2  0
 11 13  1  0
 13 14  1  0
 14 15  2  0
 15 16  1  0
 16 17  1  0
 17 18  2  0
 18 19  1  0
 19 20  2  0
 20 21  1  0
 10  6  1  0
 21 13  2  0
 20 16  1  0
  1 22  1  0
  1 23  1  0
  1 24  1  0
  2 25  1  0
  2 26  1  0
  6 27  1  0
  7 28  1  0
  7 29  1  0
  8 30  1  0
  8 31  1  0
  9 32  1  0
  9 33  1  0
 14 34  1  0
 15 35  1  0
 17 36  1  0
 18 37  1  0
M  END
>  <Energy>  (982) 
159.5443612311428

>  <compound_id>  (982) 
8810

>  <target_id>  (982) 
1

>  <reference_id>  (982) 
106

>  <inspiration_ids>  (982) 
[124, 106]

>  <energy_score>  (982) 
7.063217380114537

>  <distance_score>  (982) 
2.233821141779481

>  <path>  (982) 
/opt/xchem-fragalysis-2/maxwin/BulkDock/SCRATCH/511014/C8810-P106/C8810-P106.minimised.mol

>  <scratch_subdir>  (982) 
/opt/xchem-fragalysis-2/maxwin/BulkDock/SCRATCH/511014/C8810-P106

>  <fragmenstein_runtime>  (982) 
3.2913687229156494

>  <fragmenstein_outcome>  (982) 
too moved

>  <fragmenstein_mode>  (982) 
expansion

>  <fragmenstein_error>  (982) 


$$$$
C8811-P124
     RDKit          3D

 31 34  0  0  0  0  0  0  0  0999 V2000
   17.4486   -1.9635   13.5852 C   0  0  0  0  0  0  0  0  0  0  0  0
   18.0015   -2.9601   14.3572 C   0  0  0  0  0  0  0  0  0  0  0  0
   17.9670   -2.4738   15.6323 N   0  0  0  0  0  0  0  0  0  0  0  0
   18.2458   -3.0874   16.8460 C   0  0  0  0  0  0  0  0  0  0  0  0
   17.8815   -2.4593   17.9782 C   0  0  0  0  0  0  0  0  0  0  0  0
   17.0741   -1.2050   17.7342 C   0  0  0  0  0  0  0  0  0  0  0  0
   15.7793   -1.0835   18.3980 C   0  0  0  0  0  0  0  0  0  0  0  0
   14.7569   -0.8974   17.5797 N   0  0  0  0  0  0  0  0  0  0  0  0
   14.2762   -2.1928   17.5186 C   0  0  0  0  0  0  0  0  0  0  0  0
   13.7772   -2.8358   16.2377 C   0  0  0  0  0  0  0  0  0  0  0  0
   12.2757   -2.9947   16.0686 C   0  0  0  0  0  0  0  0  0  0  0  0
   11.9104   -2.3084   14.7642 C   0  0  0  0  0  0  0  0  0  0  0  0
   13.0585   -1.3615   14.5162 C   0  0  0  0  0  0  0  0  0  0  0  0
   14.2085   -2.0758   15.0538 N   0  0  0  0  0  0  0  0  0  0  0  0
   14.5381   -2.8944   18.6385 N   0  0  0  0  0  0  0  0  0  0  0  0
   15.4588   -2.0559   19.3186 O   0  0  0  0  0  0  0  0  0  0  0  0
   17.2113   -0.4518   16.6835 N   0  0  0  0  0  0  0  0  0  0  0  0
   17.4916   -1.1665   15.5610 C   0  0  0  0  0  0  0  0  0  0  0  0
   17.1551   -0.8603   14.3295 N   0  0  0  0  0  0  0  0  0  0  0  0
   17.2504   -1.9907   12.5213 H   0  0  0  0  0  0  0  0  0  0  0  0
   18.3354   -3.9587   14.1188 H   0  0  0  0  0  0  0  0  0  0  0  0
   18.7103   -4.0646   16.8235 H   0  0  0  0  0  0  0  0  0  0  0  0
   17.9926   -2.8648   18.9734 H   0  0  0  0  0  0  0  0  0  0  0  0
   14.2510   -3.8234   16.1790 H   0  0  0  0  0  0  0  0  0  0  0  0
   11.7456   -2.5156   16.8739 H   0  0  0  0  0  0  0  0  0  0  0  0
   11.9704   -4.0453   16.0589 H   0  0  0  0  0  0  0  0  0  0  0  0
   11.8472   -3.0501   13.9595 H   0  0  0  0  0  0  0  0  0  0  0  0
   10.9457   -1.7983   14.8222 H   0  0  0  0  0  0  0  0  0  0  0  0
   12.9373   -0.4127   15.0371 H   0  0  0  0  0  0  0  0  0  0  0  0
   13.1858   -1.1470   13.4512 H   0  0  0  0  0  0  0  0  0  0  0  0
   14.9457   -1.3999   15.2798 H   0  0  0  0  0  0  0  0  0  0  0  0
  1  2  2  0
  2  3  1  0
  3  4  1  0
  4  5  2  0
  5  6  1  0
  6  7  1  0
  7  8  2  0
  8  9  1  0
  9 10  1  0
 10 11  1  0
 11 12  1  0
 12 13  1  0
 13 14  1  0
  9 15  2  0
 15 16  1  0
  6 17  2  0
 17 18  1  0
 18 19  2  0
 19  1  1  0
 18  3  1  0
 16  7  1  0
 14 10  1  0
  1 20  1  0
  2 21  1  0
  4 22  1  0
  5 23  1  0
 10 24  1  0
 11 25  1  0
 11 26  1  0
 12 27  1  0
 12 28  1  0
 13 29  1  0
 13 30  1  0
 14 31  1  0
M  END
>  <Energy>  (983) 
155.62954128346846

>  <compound_id>  (983) 
8811

>  <target_id>  (983) 
1

>  <reference_id>  (983) 
124

>  <inspiration_ids>  (983) 
[124, 106]

>  <energy_score>  (983) 
21.958258464305516

>  <distance_score>  (983) 
2.0134762019495804

>  <path>  (983) 
/opt/xchem-fragalysis-2/maxwin/BulkDock/SCRATCH/511014/C8811-P124/C8811-P124.minimised.mol

>  <scratch_subdir>  (983) 
/opt/xchem-fragalysis-2/maxwin/BulkDock/SCRATCH/511014/C8811-P124

>  <fragmenstein_runtime>  (983) 
7.702586889266968

>  <fragmenstein_outcome>  (983) 
too moved

>  <fragmenstein_mode>  (983) 
expansion

>  <fragmenstein_error>  (983) 


$$$$
C8811-P106
     RDKit          3D

 31 34  0  0  0  0  0  0  0  0999 V2000
   16.9198   -4.5116   15.3555 C   0  0  0  0  0  0  0  0  0  0  0  0
   18.0219   -3.7206   15.1447 C   0  0  0  0  0  0  0  0  0  0  0  0
   17.8538   -2.6749   16.0002 N   0  0  0  0  0  0  0  0  0  0  0  0
   18.6038   -1.5237   16.1558 C   0  0  0  0  0  0  0  0  0  0  0  0
   18.1304   -0.5350   16.9324 C   0  0  0  0  0  0  0  0  0  0  0  0
   16.7933   -0.8152   17.5486 C   0  0  0  0  0  0  0  0  0  0  0  0
   15.9295    0.3013   17.8821 C   0  0  0  0  0  0  0  0  0  0  0  0
   15.3170    0.8545   16.8479 N   0  0  0  0  0  0  0  0  0  0  0  0
   14.0654    0.3112   17.0226 C   0  0  0  0  0  0  0  0  0  0  0  0
   13.2555   -0.2056   15.8667 C   0  0  0  0  0  0  0  0  0  0  0  0
   12.7863   -1.6528   15.9673 C   0  0  0  0  0  0  0  0  0  0  0  0
   11.6146   -1.6757   15.0130 C   0  0  0  0  0  0  0  0  0  0  0  0
   10.9786   -0.3169   15.2233 C   0  0  0  0  0  0  0  0  0  0  0  0
   12.0476    0.5964   15.6276 N   0  0  0  0  0  0  0  0  0  0  0  0
   13.7791    0.0630   18.3104 N   0  0  0  0  0  0  0  0  0  0  0  0
   15.0465    0.1010   18.9210 O   0  0  0  0  0  0  0  0  0  0  0  0
   16.2028   -1.9751   17.5710 N   0  0  0  0  0  0  0  0  0  0  0  0
   16.6855   -2.9008   16.7143 C   0  0  0  0  0  0  0  0  0  0  0  0
   16.0950   -3.9982   16.3097 N   0  0  0  0  0  0  0  0  0  0  0  0
   16.6907   -5.4488   14.8687 H   0  0  0  0  0  0  0  0  0  0  0  0
   18.8632   -3.8082   14.4738 H   0  0  0  0  0  0  0  0  0  0  0  0
   19.5252   -1.4443   15.5931 H   0  0  0  0  0  0  0  0  0  0  0  0
   18.6065    0.4258   17.0662 H   0  0  0  0  0  0  0  0  0  0  0  0
   13.8765   -0.1155   14.9647 H   0  0  0  0  0  0  0  0  0  0  0  0
   12.4555   -1.9132   16.9770 H   0  0  0  0  0  0  0  0  0  0  0  0
   13.5650   -2.3643   15.6758 H   0  0  0  0  0  0  0  0  0  0  0  0
   11.9759   -1.7723   13.9818 H   0  0  0  0  0  0  0  0  0  0  0  0
   10.9269   -2.5016   15.2150 H   0  0  0  0  0  0  0  0  0  0  0  0
   10.2264   -0.3719   16.0170 H   0  0  0  0  0  0  0  0  0  0  0  0
   10.4794    0.0447   14.3199 H   0  0  0  0  0  0  0  0  0  0  0  0
   11.7911    1.1137   16.4653 H   0  0  0  0  0  0  0  0  0  0  0  0
  1  2  2  0
  2  3  1  0
  3  4  1  0
  4  5  2  0
  5  6  1  0
  6  7  1  0
  7  8  2  0
  8  9  1  0
  9 10  1  0
 10 11  1  0
 11 12  1  0
 12 13  1  0
 13 14  1  0
  9 15  2  0
 15 16  1  0
  6 17  2  0
 17 18  1  0
 18 19  2  0
 19  1  1  0
 18  3  1  0
 16  7  1  0
 14 10  1  0
  1 20  1  0
  2 21  1  0
  4 22  1  0
  5 23  1  0
 10 24  1  0
 11 25  1  0
 11 26  1  0
 12 27  1  0
 12 28  1  0
 13 29  1  0
 13 30  1  0
 14 31  1  0
M  END
>  <Energy>  (984) 
139.59348637961486

>  <compound_id>  (984) 
8811

>  <target_id>  (984) 
1

>  <reference_id>  (984) 
106

>  <inspiration_ids>  (984) 
[124, 106]

>  <energy_score>  (984) 
5.922203560452772

>  <distance_score>  (984) 
2.3863440811885943

>  <path>  (984) 
/opt/xchem-fragalysis-2/maxwin/BulkDock/SCRATCH/511014/C8811-P106/C8811-P106.minimised.mol

>  <scratch_subdir>  (984) 
/opt/xchem-fragalysis-2/maxwin/BulkDock/SCRATCH/511014/C8811-P106

>  <fragmenstein_runtime>  (984) 
7.950114965438843

>  <fragmenstein_outcome>  (984) 
too moved

>  <fragmenstein_mode>  (984) 
expansion

>  <fragmenstein_error>  (984) 


$$$$
C8812-P124
     RDKit          3D

 40 43  0  0  0  0  0  0  0  0999 V2000
   14.4385    3.8597   14.7303 C   0  0  0  0  0  0  0  0  0  0  0  0
   13.9922    2.7240   15.6578 C   0  0  0  0  0  0  0  0  0  0  0  0
   14.9580    2.6313   16.8326 C   0  0  0  0  0  0  0  0  0  0  0  0
   13.8688    1.4285   14.9321 C   0  0  0  0  0  0  0  0  0  0  0  0
   13.8877    0.2103   15.4142 N   0  0  0  0  0  0  0  0  0  0  0  0
   13.5500   -0.5509   14.3291 C   0  0  0  0  0  0  0  0  0  0  0  0
   13.4599   -2.0525   14.3733 C   0  0  0  0  0  0  0  0  0  0  0  0
   12.0156   -2.5365   14.2617 C   0  0  0  0  0  0  0  0  0  0  0  0
   11.6526   -2.9633   15.6552 C   0  0  0  0  0  0  0  0  0  0  0  0
   12.9326   -3.4820   16.2590 C   0  0  0  0  0  0  0  0  0  0  0  0
   14.0218   -2.8193   15.5369 N   0  0  0  0  0  0  0  0  0  0  0  0
   15.0502   -2.2431   16.2556 C   0  0  0  0  0  0  0  0  0  0  0  0
   16.3921   -2.0435   15.5973 C   0  0  0  0  0  0  0  0  0  0  0  0
   17.2448   -1.2417   16.2484 C   0  0  0  0  0  0  0  0  0  0  0  0
   16.8465   -0.6811   17.4576 N   0  0  0  0  0  0  0  0  0  0  0  0
   17.4642    0.2280   18.2731 C   0  0  0  0  0  0  0  0  0  0  0  0
   16.5643    0.4812   19.2795 C   0  0  0  0  0  0  0  0  0  0  0  0
   15.4363   -0.2622   19.1254 N   0  0  0  0  0  0  0  0  0  0  0  0
   15.6377   -0.9899   18.0519 C   0  0  0  0  0  0  0  0  0  0  0  0
   14.7804   -1.8515   17.4729 N   0  0  0  0  0  0  0  0  0  0  0  0
   13.4286    0.1403   13.1843 N   0  0  0  0  0  0  0  0  0  0  0  0
   13.6022    1.4643   13.5916 O   0  0  0  0  0  0  0  0  0  0  0  0
   14.5308    4.8013   15.2826 H   0  0  0  0  0  0  0  0  0  0  0  0
   13.7131    4.0232   13.9255 H   0  0  0  0  0  0  0  0  0  0  0  0
   15.4079    3.6414   14.2676 H   0  0  0  0  0  0  0  0  0  0  0  0
   13.0052    2.9929   16.0508 H   0  0  0  0  0  0  0  0  0  0  0  0
   15.9686    2.3769   16.4934 H   0  0  0  0  0  0  0  0  0  0  0  0
   14.6519    1.8735   17.5536 H   0  0  0  0  0  0  0  0  0  0  0  0
   15.0150    3.5856   17.3676 H   0  0  0  0  0  0  0  0  0  0  0  0
   14.0053   -2.3772   13.4775 H   0  0  0  0  0  0  0  0  0  0  0  0
   11.9402   -3.3892   13.5820 H   0  0  0  0  0  0  0  0  0  0  0  0
   11.3385   -1.7644   13.8930 H   0  0  0  0  0  0  0  0  0  0  0  0
   10.8626   -3.7124   15.6557 H   0  0  0  0  0  0  0  0  0  0  0  0
   11.2920   -2.0988   16.2048 H   0  0  0  0  0  0  0  0  0  0  0  0
   12.9345   -3.3218   17.3407 H   0  0  0  0  0  0  0  0  0  0  0  0
   13.0221   -4.5611   16.1218 H   0  0  0  0  0  0  0  0  0  0  0  0
   16.5911   -2.5141   14.6454 H   0  0  0  0  0  0  0  0  0  0  0  0
   18.2247   -0.9826   15.8726 H   0  0  0  0  0  0  0  0  0  0  0  0
   18.4458    0.6227   18.0594 H   0  0  0  0  0  0  0  0  0  0  0  0
   16.6775    1.1640   20.1115 H   0  0  0  0  0  0  0  0  0  0  0  0
  1  2  1  0
  2  3  1  0
  2  4  1  0
  4  5  2  0
  5  6  1  0
  6  7  1  0
  7  8  1  0
  8  9  1  0
  9 10  1  0
 10 11  1  0
 11 12  1  0
 12 13  1  0
 13 14  2  0
 14 15  1  0
 15 16  1  0
 16 17  2  0
 17 18  1  0
 18 19  2  0
 19 20  1  0
  6 21  2  0
 21 22  1  0
 22  4  1  0
 11  7  1  0
 20 12  2  0
 19 15  1  0
  1 23  1  0
  1 24  1  0
  1 25  1  0
  2 26  1  0
  3 27  1  0
  3 28  1  0
  3 29  1  0
  7 30  1  0
  8 31  1  0
  8 32  1  0
  9 33  1  0
  9 34  1  0
 10 35  1  0
 10 36  1  0
 13 37  1  0
 14 38  1  0
 16 39  1  0
 17 40  1  0
M  END
>  <Energy>  (985) 
41.778785056529586

>  <compound_id>  (985) 
8812

>  <target_id>  (985) 
1

>  <reference_id>  (985) 
124

>  <inspiration_ids>  (985) 
[124, 106]

>  <energy_score>  (985) 
-31.08050072114966

>  <distance_score>  (985) 
2.565877178539351

>  <path>  (985) 
/opt/xchem-fragalysis-2/maxwin/BulkDock/SCRATCH/511014/C8812-P124/C8812-P124.minimised.mol

>  <scratch_subdir>  (985) 
/opt/xchem-fragalysis-2/maxwin/BulkDock/SCRATCH/511014/C8812-P124

>  <fragmenstein_runtime>  (985) 
13.054774045944214

>  <fragmenstein_outcome>  (985) 
too moved

>  <fragmenstein_mode>  (985) 
expansion

>  <fragmenstein_error>  (985) 


$$$$
C8812-P106
     RDKit          3D

 40 43  0  0  0  0  0  0  0  0999 V2000
   13.3568    3.1199   14.4694 C   0  0  0  0  0  0  0  0  0  0  0  0
   12.8001    2.5428   15.7695 C   0  0  0  0  0  0  0  0  0  0  0  0
   13.8214    2.6658   16.8958 C   0  0  0  0  0  0  0  0  0  0  0  0
   12.3849    1.1351   15.5759 C   0  0  0  0  0  0  0  0  0  0  0  0
   13.1323    0.0781   15.3948 N   0  0  0  0  0  0  0  0  0  0  0  0
   12.2521   -0.9387   15.6565 C   0  0  0  0  0  0  0  0  0  0  0  0
   12.7442   -2.2249   16.2345 C   0  0  0  0  0  0  0  0  0  0  0  0
   11.9875   -3.4619   15.8308 C   0  0  0  0  0  0  0  0  0  0  0  0
   12.7610   -4.4830   16.6456 C   0  0  0  0  0  0  0  0  0  0  0  0
   14.2123   -4.0518   16.5558 C   0  0  0  0  0  0  0  0  0  0  0  0
   14.1616   -2.6795   16.0623 N   0  0  0  0  0  0  0  0  0  0  0  0
   15.1463   -1.8609   16.5578 C   0  0  0  0  0  0  0  0  0  0  0  0
   16.5078   -1.8902   15.9202 C   0  0  0  0  0  0  0  0  0  0  0  0
   17.3960   -1.0264   16.4276 C   0  0  0  0  0  0  0  0  0  0  0  0
   17.0024   -0.1964   17.4738 N   0  0  0  0  0  0  0  0  0  0  0  0
   17.6815    0.7808   18.1459 C   0  0  0  0  0  0  0  0  0  0  0  0
   16.7717    1.3169   19.0246 C   0  0  0  0  0  0  0  0  0  0  0  0
   15.5752    0.6809   18.9400 N   0  0  0  0  0  0  0  0  0  0  0  0
   15.7374   -0.2445   18.0265 C   0  0  0  0  0  0  0  0  0  0  0  0
   14.8275   -1.1255   17.5863 N   0  0  0  0  0  0  0  0  0  0  0  0
   10.9696   -0.5494   15.7853 N   0  0  0  0  0  0  0  0  0  0  0  0
   11.0581    0.8452   15.7140 O   0  0  0  0  0  0  0  0  0  0  0  0
   13.6313    4.1725   14.5973 H   0  0  0  0  0  0  0  0  0  0  0  0
   12.6144    3.0617   13.6653 H   0  0  0  0  0  0  0  0  0  0  0  0
   14.2484    2.5759   14.1365 H   0  0  0  0  0  0  0  0  0  0  0  0
   11.9196    3.1345   16.0512 H   0  0  0  0  0  0  0  0  0  0  0  0
   13.4410    2.2236   17.8230 H   0  0  0  0  0  0  0  0  0  0  0  0
   14.0517    3.7178   17.0957 H   0  0  0  0  0  0  0  0  0  0  0  0
   14.7590    2.1652   16.6347 H   0  0  0  0  0  0  0  0  0  0  0  0
   12.5847   -2.1000   17.3140 H   0  0  0  0  0  0  0  0  0  0  0  0
   12.0615   -3.6132   14.7512 H   0  0  0  0  0  0  0  0  0  0  0  0
   10.9334   -3.4361   16.0807 H   0  0  0  0  0  0  0  0  0  0  0  0
   12.6183   -5.5104   16.3317 H   0  0  0  0  0  0  0  0  0  0  0  0
   12.4555   -4.4263   17.6949 H   0  0  0  0  0  0  0  0  0  0  0  0
   14.6725   -4.1164   17.5507 H   0  0  0  0  0  0  0  0  0  0  0  0
   14.8105   -4.6797   15.8948 H   0  0  0  0  0  0  0  0  0  0  0  0
   16.6951   -2.5609   15.0945 H   0  0  0  0  0  0  0  0  0  0  0  0
   18.4062   -0.9225   16.0569 H   0  0  0  0  0  0  0  0  0  0  0  0
   18.7117    1.0222   17.9314 H   0  0  0  0  0  0  0  0  0  0  0  0
   16.9267    2.1318   19.7198 H   0  0  0  0  0  0  0  0  0  0  0  0
  1  2  1  0
  2  3  1  0
  2  4  1  0
  4  5  2  0
  5  6  1  0
  6  7  1  0
  7  8  1  0
  8  9  1  0
  9 10  1  0
 10 11  1  0
 11 12  1  0
 12 13  1  0
 13 14  2  0
 14 15  1  0
 15 16  1  0
 16 17  2  0
 17 18  1  0
 18 19  2  0
 19 20  1  0
  6 21  2  0
 21 22  1  0
 22  4  1  0
 11  7  1  0
 20 12  2  0
 19 15  1  0
  1 23  1  0
  1 24  1  0
  1 25  1  0
  2 26  1  0
  3 27  1  0
  3 28  1  0
  3 29  1  0
  7 30  1  0
  8 31  1  0
  8 32  1  0
  9 33  1  0
  9 34  1  0
 10 35  1  0
 10 36  1  0
 13 37  1  0
 14 38  1  0
 16 39  1  0
 17 40  1  0
M  END
>  <Energy>  (986) 
45.76884713999813

>  <compound_id>  (986) 
8812

>  <target_id>  (986) 
1

>  <reference_id>  (986) 
106

>  <inspiration_ids>  (986) 
[124, 106]

>  <energy_score>  (986) 
-27.090438637682155

>  <distance_score>  (986) 
2.4624430011019864

>  <path>  (986) 
/opt/xchem-fragalysis-2/maxwin/BulkDock/SCRATCH/511014/C8812-P106/C8812-P106.minimised.mol

>  <scratch_subdir>  (986) 
/opt/xchem-fragalysis-2/maxwin/BulkDock/SCRATCH/511014/C8812-P106

>  <fragmenstein_runtime>  (986) 
13.475467205047607

>  <fragmenstein_outcome>  (986) 
too moved

>  <fragmenstein_mode>  (986) 
expansion

>  <fragmenstein_error>  (986) 


$$$$
C8813-P124
     RDKit          3D

 32 34  0  0  0  0  0  0  0  0999 V2000
   15.6543   -0.3868   17.7525 O   0  0  0  0  0  0  0  0  0  0  0  0
   15.3586   -1.0856   16.8645 C   0  0  0  0  0  0  0  0  0  0  0  0
   14.5229   -0.5643   15.6995 C   0  0  0  0  0  0  0  0  0  0  0  0
   13.6254   -1.5176   14.9443 C   0  0  0  0  0  0  0  0  0  0  0  0
   12.8300   -0.9528   14.0324 C   0  0  0  0  0  0  0  0  0  0  0  0
   12.9282    0.4119   13.8367 N   0  0  0  0  0  0  0  0  0  0  0  0
   12.2133    1.2375   13.0260 C   0  0  0  0  0  0  0  0  0  0  0  0
   12.6699    2.5038   13.3064 C   0  0  0  0  0  0  0  0  0  0  0  0
   13.6702    2.4809   14.2258 N   0  0  0  0  0  0  0  0  0  0  0  0
   13.8156    1.2178   14.5459 C   0  0  0  0  0  0  0  0  0  0  0  0
   14.6398    0.7057   15.4814 N   0  0  0  0  0  0  0  0  0  0  0  0
   15.7457   -2.4869   16.5757 N   0  0  0  0  0  0  0  0  0  0  0  0
   14.7747   -3.4608   17.1956 C   0  0  0  0  0  0  0  0  0  0  0  0
   14.9263   -3.6018   18.6704 C   0  0  0  0  0  0  0  0  0  0  0  0
   16.3452   -3.9715   18.6300 C   0  0  0  0  0  0  0  0  0  0  0  0
   16.7155   -3.4047   17.2785 C   0  0  0  0  0  0  0  0  0  0  0  0
   17.3411   -4.3747   16.2716 C   0  0  0  0  0  0  0  0  0  0  0  0
   17.8277   -3.6503   15.1457 O   0  0  0  0  0  0  0  0  0  0  0  0
   13.6195   -2.5783   15.1036 H   0  0  0  0  0  0  0  0  0  0  0  0
   12.1153   -1.5005   13.4329 H   0  0  0  0  0  0  0  0  0  0  0  0
   11.4155    0.8936   12.3901 H   0  0  0  0  0  0  0  0  0  0  0  0
   12.3175    3.4366   12.8868 H   0  0  0  0  0  0  0  0  0  0  0  0
   14.7343   -4.3904   16.6169 H   0  0  0  0  0  0  0  0  0  0  0  0
   13.7671   -3.0442   17.0758 H   0  0  0  0  0  0  0  0  0  0  0  0
   14.2822   -4.3664   19.1107 H   0  0  0  0  0  0  0  0  0  0  0  0
   14.7632   -2.6574   19.2002 H   0  0  0  0  0  0  0  0  0  0  0  0
   16.5011   -5.0548   18.6774 H   0  0  0  0  0  0  0  0  0  0  0  0
   16.9080   -3.5168   19.4520 H   0  0  0  0  0  0  0  0  0  0  0  0
   17.5349   -2.7007   17.4998 H   0  0  0  0  0  0  0  0  0  0  0  0
   18.1849   -4.9087   16.7198 H   0  0  0  0  0  0  0  0  0  0  0  0
   16.6347   -5.1190   15.8983 H   0  0  0  0  0  0  0  0  0  0  0  0
   17.1432   -2.9930   14.9180 H   0  0  0  0  0  0  0  0  0  0  0  0
  1  2  2  0
  2  3  1  0
  3  4  1  0
  4  5  2  0
  5  6  1  0
  6  7  1  0
  7  8  2  0
  8  9  1  0
  9 10  2  0
 10 11  1  0
  2 12  1  0
 12 13  1  0
 13 14  1  0
 14 15  1  0
 15 16  1  0
 16 17  1  0
 17 18  1  0
 11  3  2  0
 16 12  1  0
 10  6  1  0
  4 19  1  0
  5 20  1  0
  7 21  1  0
  8 22  1  0
 13 23  1  0
 13 24  1  0
 14 25  1  0
 14 26  1  0
 15 27  1  0
 15 28  1  0
 16 29  1  0
 17 30  1  0
 17 31  1  0
 18 32  1  0
M  END
>  <Energy>  (987) 
165.8614413479867

>  <compound_id>  (987) 
8813

>  <target_id>  (987) 
1

>  <reference_id>  (987) 
124

>  <inspiration_ids>  (987) 
[124, 106]

>  <energy_score>  (987) 
19.093159988879364

>  <distance_score>  (987) 
3.056606753603912

>  <path>  (987) 
/opt/xchem-fragalysis-2/maxwin/BulkDock/SCRATCH/511014/C8813-P124/C8813-P124.minimised.mol

>  <scratch_subdir>  (987) 
/opt/xchem-fragalysis-2/maxwin/BulkDock/SCRATCH/511014/C8813-P124

>  <fragmenstein_runtime>  (987) 
1.6261191368103027

>  <fragmenstein_outcome>  (987) 
too moved

>  <fragmenstein_mode>  (987) 
expansion

>  <fragmenstein_error>  (987) 


$$$$
C8813-P106
     RDKit          3D

 32 34  0  0  0  0  0  0  0  0999 V2000
   15.4764   -2.0149   13.3734 O   0  0  0  0  0  0  0  0  0  0  0  0
   14.9118   -1.7657   14.3646 C   0  0  0  0  0  0  0  0  0  0  0  0
   13.5081   -1.1952   14.4468 C   0  0  0  0  0  0  0  0  0  0  0  0
   12.3947   -2.1725   14.6328 C   0  0  0  0  0  0  0  0  0  0  0  0
   11.2400   -1.6299   15.0308 C   0  0  0  0  0  0  0  0  0  0  0  0
   11.1863   -0.2666   15.2470 N   0  0  0  0  0  0  0  0  0  0  0  0
   10.1780    0.5049   15.7436 C   0  0  0  0  0  0  0  0  0  0  0  0
   10.7221    1.7611   15.8862 C   0  0  0  0  0  0  0  0  0  0  0  0
   12.0115    1.7901   15.4520 N   0  0  0  0  0  0  0  0  0  0  0  0
   12.2701    0.5745   15.0280 C   0  0  0  0  0  0  0  0  0  0  0  0
   13.4408    0.0970   14.5480 N   0  0  0  0  0  0  0  0  0  0  0  0
   15.3615   -1.8685   15.7871 N   0  0  0  0  0  0  0  0  0  0  0  0
   16.0065   -0.5805   16.2535 C   0  0  0  0  0  0  0  0  0  0  0  0
   16.2529   -0.6428   17.7373 C   0  0  0  0  0  0  0  0  0  0  0  0
   16.6124   -2.0808   17.8486 C   0  0  0  0  0  0  0  0  0  0  0  0
   16.6345   -2.4170   16.3771 C   0  0  0  0  0  0  0  0  0  0  0  0
   16.6357   -3.9384   16.2013 C   0  0  0  0  0  0  0  0  0  0  0  0
   17.2090   -4.2664   14.9408 O   0  0  0  0  0  0  0  0  0  0  0  0
   12.5191   -3.2224   14.4544 H   0  0  0  0  0  0  0  0  0  0  0  0
   10.3399   -2.2070   15.1829 H   0  0  0  0  0  0  0  0  0  0  0  0
    9.1893    0.1173   15.9333 H   0  0  0  0  0  0  0  0  0  0  0  0
   10.2437    2.6548   16.2668 H   0  0  0  0  0  0  0  0  0  0  0  0
   16.8657   -0.2703   15.6329 H   0  0  0  0  0  0  0  0  0  0  0  0
   15.2899    0.2305   16.0877 H   0  0  0  0  0  0  0  0  0  0  0  0
   17.0518    0.0361   18.0486 H   0  0  0  0  0  0  0  0  0  0  0  0
   15.3520   -0.4148   18.3169 H   0  0  0  0  0  0  0  0  0  0  0  0
   17.5787   -2.2446   18.3346 H   0  0  0  0  0  0  0  0  0  0  0  0
   15.8449   -2.6389   18.3975 H   0  0  0  0  0  0  0  0  0  0  0  0
   17.5409   -2.0780   15.8417 H   0  0  0  0  0  0  0  0  0  0  0  0
   17.2679   -4.4155   16.9573 H   0  0  0  0  0  0  0  0  0  0  0  0
   15.6346   -4.3781   16.2658 H   0  0  0  0  0  0  0  0  0  0  0  0
   16.5861   -3.9850   14.2382 H   0  0  0  0  0  0  0  0  0  0  0  0
  1  2  2  0
  2  3  1  0
  3  4  1  0
  4  5  2  0
  5  6  1  0
  6  7  1  0
  7  8  2  0
  8  9  1  0
  9 10  2  0
 10 11  1  0
  2 12  1  0
 12 13  1  0
 13 14  1  0
 14 15  1  0
 15 16  1  0
 16 17  1  0
 17 18  1  0
 11  3  2  0
 16 12  1  0
 10  6  1  0
  4 19  1  0
  5 20  1  0
  7 21  1  0
  8 22  1  0
 13 23  1  0
 13 24  1  0
 14 25  1  0
 14 26  1  0
 15 27  1  0
 15 28  1  0
 16 29  1  0
 17 30  1  0
 17 31  1  0
 18 32  1  0
M  END
>  <Energy>  (988) 
151.35793986412986

>  <compound_id>  (988) 
8813

>  <target_id>  (988) 
1

>  <reference_id>  (988) 
106

>  <inspiration_ids>  (988) 
[124, 106]

>  <energy_score>  (988) 
4.589658505021362

>  <distance_score>  (988) 
2.9055461173690507

>  <path>  (988) 
/opt/xchem-fragalysis-2/maxwin/BulkDock/SCRATCH/511014/C8813-P106/C8813-P106.minimised.mol

>  <scratch_subdir>  (988) 
/opt/xchem-fragalysis-2/maxwin/BulkDock/SCRATCH/511014/C8813-P106

>  <fragmenstein_runtime>  (988) 
1.9417173862457275

>  <fragmenstein_outcome>  (988) 
too moved

>  <fragmenstein_mode>  (988) 
expansion

>  <fragmenstein_error>  (988) 


$$$$
C8814-P124
     RDKit          3D

 40 43  0  0  0  0  0  0  0  0999 V2000
   11.7120   -1.5950   14.5619 C   0  0  0  0  0  0  0  0  0  0  0  0
   12.9467   -0.9612   14.5779 C   0  0  0  0  0  0  0  0  0  0  0  0
   13.9943   -1.5475   15.2676 C   0  0  0  0  0  0  0  0  0  0  0  0
   13.8196   -2.7690   15.9222 C   0  0  0  0  0  0  0  0  0  0  0  0
   14.8483   -3.4840   16.4817 O   0  0  0  0  0  0  0  0  0  0  0  0
   16.0046   -3.5791   15.6239 C   0  0  0  0  0  0  0  0  0  0  0  0
   17.2398   -2.9912   16.3105 C   0  0  0  0  0  0  0  0  0  0  0  0
   18.4047   -2.9184   15.3232 C   0  0  0  0  0  0  0  0  0  0  0  0
   18.1338   -1.6067   14.5908 C   0  0  0  0  0  0  0  0  0  0  0  0
   17.6280   -0.6930   15.6904 C   0  0  0  0  0  0  0  0  0  0  0  0
   17.0290   -1.5929   16.6735 N   0  0  0  0  0  0  0  0  0  0  0  0
   16.4094   -1.0955   17.8054 C   0  0  0  0  0  0  0  0  0  0  0  0
   16.0000   -1.9989   18.9472 C   0  0  0  0  0  0  0  0  0  0  0  0
   15.4721   -1.4119   20.0289 C   0  0  0  0  0  0  0  0  0  0  0  0
   15.3161   -0.0398   20.0363 N   0  0  0  0  0  0  0  0  0  0  0  0
   14.8375    0.7875   21.0172 C   0  0  0  0  0  0  0  0  0  0  0  0
   14.8806    2.0487   20.4729 C   0  0  0  0  0  0  0  0  0  0  0  0
   15.3675    2.0149   19.1917 N   0  0  0  0  0  0  0  0  0  0  0  0
   15.6531    0.7507   18.9480 C   0  0  0  0  0  0  0  0  0  0  0  0
   16.2080    0.2035   17.8374 N   0  0  0  0  0  0  0  0  0  0  0  0
   12.5585   -3.3528   15.9766 C   0  0  0  0  0  0  0  0  0  0  0  0
   11.5100   -2.7811   15.2622 C   0  0  0  0  0  0  0  0  0  0  0  0
   10.8982   -1.1234   14.0248 H   0  0  0  0  0  0  0  0  0  0  0  0
   13.0842   -0.0162   14.0593 H   0  0  0  0  0  0  0  0  0  0  0  0
   14.9479   -1.0404   15.2635 H   0  0  0  0  0  0  0  0  0  0  0  0
   16.1819   -4.6490   15.4625 H   0  0  0  0  0  0  0  0  0  0  0  0
   15.8366   -3.1506   14.6297 H   0  0  0  0  0  0  0  0  0  0  0  0
   17.5191   -3.5948   17.1801 H   0  0  0  0  0  0  0  0  0  0  0  0
   18.4625   -3.7759   14.6463 H   0  0  0  0  0  0  0  0  0  0  0  0
   19.3549   -2.8454   15.8669 H   0  0  0  0  0  0  0  0  0  0  0  0
   17.3692   -1.7419   13.8177 H   0  0  0  0  0  0  0  0  0  0  0  0
   19.0294   -1.2111   14.1026 H   0  0  0  0  0  0  0  0  0  0  0  0
   18.4675   -0.1572   16.1490 H   0  0  0  0  0  0  0  0  0  0  0  0
   16.9223    0.0435   15.2934 H   0  0  0  0  0  0  0  0  0  0  0  0
   16.1377   -3.0660   18.8728 H   0  0  0  0  0  0  0  0  0  0  0  0
   15.1485   -1.9591   20.9051 H   0  0  0  0  0  0  0  0  0  0  0  0
   14.5088    0.4157   21.9769 H   0  0  0  0  0  0  0  0  0  0  0  0
   14.5811    2.9813   20.9328 H   0  0  0  0  0  0  0  0  0  0  0  0
   12.4120   -4.2940   16.4994 H   0  0  0  0  0  0  0  0  0  0  0  0
   10.5444   -3.2720   15.2190 H   0  0  0  0  0  0  0  0  0  0  0  0
  1  2  2  0
  2  3  1  0
  3  4  2  0
  4  5  1  0
  5  6  1  0
  6  7  1  0
  7  8  1  0
  8  9  1  0
  9 10  1  0
 10 11  1  0
 11 12  1  0
 12 13  1  0
 13 14  2  0
 14 15  1  0
 15 16  1  0
 16 17  2  0
 17 18  1  0
 18 19  2  0
 19 20  1  0
  4 21  1  0
 21 22  2  0
 22  1  1  0
 11  7  1  0
 20 12  2  0
 19 15  1  0
  1 23  1  0
  2 24  1  0
  3 25  1  0
  6 26  1  0
  6 27  1  0
  7 28  1  0
  8 29  1  0
  8 30  1  0
  9 31  1  0
  9 32  1  0
 10 33  1  0
 10 34  1  0
 13 35  1  0
 14 36  1  0
 16 37  1  0
 17 38  1  0
 21 39  1  0
 22 40  1  0
M  END
>  <Energy>  (989) 
41.141707042931714

>  <compound_id>  (989) 
8814

>  <target_id>  (989) 
1

>  <reference_id>  (989) 
124

>  <inspiration_ids>  (989) 
[124, 106]

>  <energy_score>  (989) 
-26.28734078625007

>  <distance_score>  (989) 
1.806232759597998

>  <path>  (989) 
/opt/xchem-fragalysis-2/maxwin/BulkDock/SCRATCH/511014/C8814-P124/C8814-P124.minimised.mol

>  <scratch_subdir>  (989) 
/opt/xchem-fragalysis-2/maxwin/BulkDock/SCRATCH/511014/C8814-P124

>  <fragmenstein_runtime>  (989) 
116.1765034198761

>  <fragmenstein_outcome>  (989) 
too moved

>  <fragmenstein_mode>  (989) 
expansion

>  <fragmenstein_error>  (989) 


$$$$
C8814-P106
     RDKit          3D

 40 43  0  0  0  0  0  0  0  0999 V2000
   11.2249   -0.9472   15.1568 C   0  0  0  0  0  0  0  0  0  0  0  0
   12.3224   -0.2250   15.6132 C   0  0  0  0  0  0  0  0  0  0  0  0
   13.4030   -0.9061   16.1693 C   0  0  0  0  0  0  0  0  0  0  0  0
   13.3817   -2.2970   16.2840 C   0  0  0  0  0  0  0  0  0  0  0  0
   14.4442   -2.9903   16.8023 O   0  0  0  0  0  0  0  0  0  0  0  0
   15.4532   -3.2319   15.7970 C   0  0  0  0  0  0  0  0  0  0  0  0
   16.8569   -2.9549   16.3498 C   0  0  0  0  0  0  0  0  0  0  0  0
   17.9018   -3.0556   15.2409 C   0  0  0  0  0  0  0  0  0  0  0  0
   17.7541   -1.7142   14.5254 C   0  0  0  0  0  0  0  0  0  0  0  0
   17.3859   -0.7330   15.6294 C   0  0  0  0  0  0  0  0  0  0  0  0
   16.9883   -1.5646   16.7664 N   0  0  0  0  0  0  0  0  0  0  0  0
   16.4342   -0.9972   17.9006 C   0  0  0  0  0  0  0  0  0  0  0  0
   16.0204   -1.8466   19.0832 C   0  0  0  0  0  0  0  0  0  0  0  0
   15.4052   -1.2218   20.0953 C   0  0  0  0  0  0  0  0  0  0  0  0
   15.2122    0.1433   20.0194 N   0  0  0  0  0  0  0  0  0  0  0  0
   14.6073    0.9980   20.9014 C   0  0  0  0  0  0  0  0  0  0  0  0
   14.6850    2.2359   20.3091 C   0  0  0  0  0  0  0  0  0  0  0  0
   15.3252    2.1632   19.0989 N   0  0  0  0  0  0  0  0  0  0  0  0
   15.6455    0.8949   18.9377 C   0  0  0  0  0  0  0  0  0  0  0  0
   16.2731    0.3072   17.8875 N   0  0  0  0  0  0  0  0  0  0  0  0
   12.2603   -3.0104   15.8886 C   0  0  0  0  0  0  0  0  0  0  0  0
   11.1986   -2.3367   15.2903 C   0  0  0  0  0  0  0  0  0  0  0  0
   10.3951   -0.4387   14.6707 H   0  0  0  0  0  0  0  0  0  0  0  0
   12.3557    0.8563   15.5123 H   0  0  0  0  0  0  0  0  0  0  0  0
   14.2649   -0.3355   16.4898 H   0  0  0  0  0  0  0  0  0  0  0  0
   15.2527   -2.6652   14.8798 H   0  0  0  0  0  0  0  0  0  0  0  0
   15.4050   -4.2982   15.5592 H   0  0  0  0  0  0  0  0  0  0  0  0
   17.0960   -3.6453   17.1648 H   0  0  0  0  0  0  0  0  0  0  0  0
   18.9066   -3.1308   15.6747 H   0  0  0  0  0  0  0  0  0  0  0  0
   17.7517   -3.9082   14.5723 H   0  0  0  0  0  0  0  0  0  0  0  0
   16.9602   -1.7600   13.7714 H   0  0  0  0  0  0  0  0  0  0  0  0
   18.6727   -1.4235   14.0062 H   0  0  0  0  0  0  0  0  0  0  0  0
   16.5783   -0.0726   15.2949 H   0  0  0  0  0  0  0  0  0  0  0  0
   18.2528   -0.1211   15.9020 H   0  0  0  0  0  0  0  0  0  0  0  0
   16.1984   -2.9101   19.0762 H   0  0  0  0  0  0  0  0  0  0  0  0
   15.0404   -1.7333   20.9766 H   0  0  0  0  0  0  0  0  0  0  0  0
   14.1772    0.6587   21.8327 H   0  0  0  0  0  0  0  0  0  0  0  0
   14.3085    3.1779   20.6862 H   0  0  0  0  0  0  0  0  0  0  0  0
   12.2228   -4.0867   16.0175 H   0  0  0  0  0  0  0  0  0  0  0  0
   10.3497   -2.8949   14.9059 H   0  0  0  0  0  0  0  0  0  0  0  0
  1  2  2  0
  2  3  1  0
  3  4  2  0
  4  5  1  0
  5  6  1  0
  6  7  1  0
  7  8  1  0
  8  9  1  0
  9 10  1  0
 10 11  1  0
 11 12  1  0
 12 13  1  0
 13 14  2  0
 14 15  1  0
 15 16  1  0
 16 17  2  0
 17 18  1  0
 18 19  2  0
 19 20  1  0
  4 21  1  0
 21 22  2  0
 22  1  1  0
 11  7  1  0
 20 12  2  0
 19 15  1  0
  1 23  1  0
  2 24  1  0
  3 25  1  0
  6 26  1  0
  6 27  1  0
  7 28  1  0
  8 29  1  0
  8 30  1  0
  9 31  1  0
  9 32  1  0
 10 33  1  0
 10 34  1  0
 13 35  1  0
 14 36  1  0
 16 37  1  0
 17 38  1  0
 21 39  1  0
 22 40  1  0
M  END
>  <Energy>  (990) 
40.341527247796876

>  <compound_id>  (990) 
8814

>  <target_id>  (990) 
1

>  <reference_id>  (990) 
106

>  <inspiration_ids>  (990) 
[124, 106]

>  <energy_score>  (990) 
-27.087520581384723

>  <distance_score>  (990) 
1.830259382939347

>  <path>  (990) 
/opt/xchem-fragalysis-2/maxwin/BulkDock/SCRATCH/511014/C8814-P106/C8814-P106.minimised.mol

>  <scratch_subdir>  (990) 
/opt/xchem-fragalysis-2/maxwin/BulkDock/SCRATCH/511014/C8814-P106

>  <fragmenstein_runtime>  (990) 
111.75904059410095

>  <fragmenstein_outcome>  (990) 
too moved

>  <fragmenstein_mode>  (990) 
expansion

>  <fragmenstein_error>  (990) 


$$$$
C8815-P124
     RDKit          3D

 39 42  0  0  0  0  0  0  0  0999 V2000
   14.2791    2.8954   12.3808 C   0  0  0  0  0  0  0  0  0  0  0  0
   13.3658    1.8299   11.7945 C   0  0  0  0  0  0  0  0  0  0  0  0
   13.8426    0.4592   12.0984 C   0  0  0  0  0  0  0  0  0  0  0  0
   14.2675   -0.6075   11.3411 C   0  0  0  0  0  0  0  0  0  0  0  0
   14.6011   -1.6527   12.2229 C   0  0  0  0  0  0  0  0  0  0  0  0
   14.4789   -1.1185   13.4737 C   0  0  0  0  0  0  0  0  0  0  0  0
   14.9529   -1.5754   14.8004 C   0  0  0  0  0  0  0  0  0  0  0  0
   14.1109   -0.9122   15.8524 C   0  0  0  0  0  0  0  0  0  0  0  0
   14.7713    0.4744   16.0426 C   0  0  0  0  0  0  0  0  0  0  0  0
   16.1380    0.3571   15.3519 C   0  0  0  0  0  0  0  0  0  0  0  0
   16.3240   -1.1127   15.1651 N   0  0  0  0  0  0  0  0  0  0  0  0
   16.8113   -1.7673   16.2985 C   0  0  0  0  0  0  0  0  0  0  0  0
   17.1960   -3.2171   16.2268 C   0  0  0  0  0  0  0  0  0  0  0  0
   17.3119   -3.8375   17.4081 C   0  0  0  0  0  0  0  0  0  0  0  0
   17.1017   -3.1169   18.5817 N   0  0  0  0  0  0  0  0  0  0  0  0
   17.0312   -3.5191   19.8890 C   0  0  0  0  0  0  0  0  0  0  0  0
   16.6776   -2.3868   20.5950 C   0  0  0  0  0  0  0  0  0  0  0  0
   16.5855   -1.2991   19.7766 N   0  0  0  0  0  0  0  0  0  0  0  0
   16.8563   -1.7536   18.5743 C   0  0  0  0  0  0  0  0  0  0  0  0
   16.7907   -1.0836   17.4147 N   0  0  0  0  0  0  0  0  0  0  0  0
   13.9090    0.1231   13.4078 O   0  0  0  0  0  0  0  0  0  0  0  0
   15.3024    2.7901   12.0045 H   0  0  0  0  0  0  0  0  0  0  0  0
   13.9180    3.8932   12.1123 H   0  0  0  0  0  0  0  0  0  0  0  0
   14.3152    2.8331   13.4735 H   0  0  0  0  0  0  0  0  0  0  0  0
   12.3505    1.9571   12.1872 H   0  0  0  0  0  0  0  0  0  0  0  0
   13.3123    1.9738   10.7103 H   0  0  0  0  0  0  0  0  0  0  0  0
   14.3547   -0.6211   10.2645 H   0  0  0  0  0  0  0  0  0  0  0  0
   15.0191   -2.6184   11.9729 H   0  0  0  0  0  0  0  0  0  0  0  0
   14.8690   -2.6637   14.8608 H   0  0  0  0  0  0  0  0  0  0  0  0
   13.0701   -0.8585   15.5219 H   0  0  0  0  0  0  0  0  0  0  0  0
   14.1756   -1.4959   16.7787 H   0  0  0  0  0  0  0  0  0  0  0  0
   14.1798    1.2858   15.6072 H   0  0  0  0  0  0  0  0  0  0  0  0
   14.8855    0.7024   17.1076 H   0  0  0  0  0  0  0  0  0  0  0  0
   16.1383    0.8553   14.3759 H   0  0  0  0  0  0  0  0  0  0  0  0
   16.9449    0.8290   15.9249 H   0  0  0  0  0  0  0  0  0  0  0  0
   17.3188   -3.6892   15.2625 H   0  0  0  0  0  0  0  0  0  0  0  0
   17.5430   -4.8897   17.5068 H   0  0  0  0  0  0  0  0  0  0  0  0
   17.1922   -4.5428   20.1926 H   0  0  0  0  0  0  0  0  0  0  0  0
   16.4922   -2.3050   21.6587 H   0  0  0  0  0  0  0  0  0  0  0  0
  1  2  1  0
  2  3  1  0
  3  4  2  0
  4  5  1  0
  5  6  2  0
  6  7  1  0
  7  8  1  0
  8  9  1  0
  9 10  1  0
 10 11  1  0
 11 12  1  0
 12 13  1  0
 13 14  2  0
 14 15  1  0
 15 16  1  0
 16 17  2  0
 17 18  1  0
 18 19  2  0
 19 20  1  0
  6 21  1  0
 21  3  1  0
 11  7  1  0
 20 12  2  0
 19 15  1  0
  1 22  1  0
  1 23  1  0
  1 24  1  0
  2 25  1  0
  2 26  1  0
  4 27  1  0
  5 28  1  0
  7 29  1  0
  8 30  1  0
  8 31  1  0
  9 32  1  0
  9 33  1  0
 10 34  1  0
 10 35  1  0
 13 36  1  0
 14 37  1  0
 16 38  1  0
 17 39  1  0
M  END
>  <Energy>  (991) 
27.554063381957544

>  <compound_id>  (991) 
8815

>  <target_id>  (991) 
1

>  <reference_id>  (991) 
124

>  <inspiration_ids>  (991) 
[124, 106]

>  <energy_score>  (991) 
-13.032617776489104

>  <distance_score>  (991) 
3.053712612295631

>  <path>  (991) 
/opt/xchem-fragalysis-2/maxwin/BulkDock/SCRATCH/511014/C8815-P124/C8815-P124.minimised.mol

>  <scratch_subdir>  (991) 
/opt/xchem-fragalysis-2/maxwin/BulkDock/SCRATCH/511014/C8815-P124

>  <fragmenstein_runtime>  (991) 
24.250388383865356

>  <fragmenstein_outcome>  (991) 
too moved

>  <fragmenstein_mode>  (991) 
expansion

>  <fragmenstein_error>  (991) 


$$$$
C8815-P106
     RDKit          3D

 39 42  0  0  0  0  0  0  0  0999 V2000
   15.2112   -2.3849   11.7284 C   0  0  0  0  0  0  0  0  0  0  0  0
   14.3431   -1.1742   11.9857 C   0  0  0  0  0  0  0  0  0  0  0  0
   13.4358   -1.3452   13.1525 C   0  0  0  0  0  0  0  0  0  0  0  0
   12.4594   -2.2181   13.6015 C   0  0  0  0  0  0  0  0  0  0  0  0
   12.1696   -1.8746   14.9480 C   0  0  0  0  0  0  0  0  0  0  0  0
   13.0245   -0.8426   15.2272 C   0  0  0  0  0  0  0  0  0  0  0  0
   13.5889   -0.2300   16.4383 C   0  0  0  0  0  0  0  0  0  0  0  0
   13.0512    1.1725   16.6617 C   0  0  0  0  0  0  0  0  0  0  0  0
   14.0446    2.0677   15.9397 C   0  0  0  0  0  0  0  0  0  0  0  0
   15.3650    1.3721   16.2310 C   0  0  0  0  0  0  0  0  0  0  0  0
   15.0495   -0.0577   16.2314 N   0  0  0  0  0  0  0  0  0  0  0  0
   15.8524   -0.9212   16.9211 C   0  0  0  0  0  0  0  0  0  0  0  0
   16.3753   -2.1581   16.2407 C   0  0  0  0  0  0  0  0  0  0  0  0
   17.0902   -2.9843   17.0141 C   0  0  0  0  0  0  0  0  0  0  0  0
   17.2780   -2.6472   18.3503 N   0  0  0  0  0  0  0  0  0  0  0  0
   17.9068   -3.3192   19.3635 C   0  0  0  0  0  0  0  0  0  0  0  0
   17.7427   -2.5201   20.4744 C   0  0  0  0  0  0  0  0  0  0  0  0
   17.0695   -1.3754   20.1761 N   0  0  0  0  0  0  0  0  0  0  0  0
   16.7826   -1.4718   18.9007 C   0  0  0  0  0  0  0  0  0  0  0  0
   16.0754   -0.6036   18.1636 N   0  0  0  0  0  0  0  0  0  0  0  0
   13.6346   -0.4093   14.1008 O   0  0  0  0  0  0  0  0  0  0  0  0
   15.9044   -2.1890   10.9040 H   0  0  0  0  0  0  0  0  0  0  0  0
   14.6026   -3.2495   11.4532 H   0  0  0  0  0  0  0  0  0  0  0  0
   15.8024   -2.6371   12.6142 H   0  0  0  0  0  0  0  0  0  0  0  0
   15.0105   -0.3222   12.1734 H   0  0  0  0  0  0  0  0  0  0  0  0
   13.8042   -0.9118   11.0801 H   0  0  0  0  0  0  0  0  0  0  0  0
   12.0508   -3.0705   13.0854 H   0  0  0  0  0  0  0  0  0  0  0  0
   11.5478   -2.4253   15.6384 H   0  0  0  0  0  0  0  0  0  0  0  0
   13.3706   -0.8594   17.3091 H   0  0  0  0  0  0  0  0  0  0  0  0
   12.0260    1.3270   16.3114 H   0  0  0  0  0  0  0  0  0  0  0  0
   13.0934    1.4174   17.7297 H   0  0  0  0  0  0  0  0  0  0  0  0
   13.8428    2.0862   14.8630 H   0  0  0  0  0  0  0  0  0  0  0  0
   14.0270    3.0984   16.3052 H   0  0  0  0  0  0  0  0  0  0  0  0
   15.7462    1.7059   17.2035 H   0  0  0  0  0  0  0  0  0  0  0  0
   16.1160    1.6054   15.4697 H   0  0  0  0  0  0  0  0  0  0  0  0
   16.1440   -2.3255   15.1986 H   0  0  0  0  0  0  0  0  0  0  0  0
   17.5103   -3.9162   16.6624 H   0  0  0  0  0  0  0  0  0  0  0  0
   18.3832   -4.2768   19.2190 H   0  0  0  0  0  0  0  0  0  0  0  0
   18.0913   -2.7162   21.4803 H   0  0  0  0  0  0  0  0  0  0  0  0
  1  2  1  0
  2  3  1  0
  3  4  2  0
  4  5  1  0
  5  6  2  0
  6  7  1  0
  7  8  1  0
  8  9  1  0
  9 10  1  0
 10 11  1  0
 11 12  1  0
 12 13  1  0
 13 14  2  0
 14 15  1  0
 15 16  1  0
 16 17  2  0
 17 18  1  0
 18 19  2  0
 19 20  1  0
  6 21  1  0
 21  3  1  0
 11  7  1  0
 20 12  2  0
 19 15  1  0
  1 22  1  0
  1 23  1  0
  1 24  1  0
  2 25  1  0
  2 26  1  0
  4 27  1  0
  5 28  1  0
  7 29  1  0
  8 30  1  0
  8 31  1  0
  9 32  1  0
  9 33  1  0
 10 34  1  0
 10 35  1  0
 13 36  1  0
 14 37  1  0
 16 38  1  0
 17 39  1  0
M  END
>  <Energy>  (992) 
19.35171925999909

>  <compound_id>  (992) 
8815

>  <target_id>  (992) 
1

>  <reference_id>  (992) 
106

>  <inspiration_ids>  (992) 
[124, 106]

>  <energy_score>  (992) 
-21.23496189844792

>  <distance_score>  (992) 
2.948320434997046

>  <path>  (992) 
/opt/xchem-fragalysis-2/maxwin/BulkDock/SCRATCH/511014/C8815-P106/C8815-P106.minimised.mol

>  <scratch_subdir>  (992) 
/opt/xchem-fragalysis-2/maxwin/BulkDock/SCRATCH/511014/C8815-P106

>  <fragmenstein_runtime>  (992) 
15.350506067276001

>  <fragmenstein_outcome>  (992) 
too moved

>  <fragmenstein_mode>  (992) 
expansion

>  <fragmenstein_error>  (992) 


$$$$
C8816-P124
     RDKit          3D

 47 50  0  0  0  0  0  0  0  0999 V2000
   13.4068    2.0060   11.7168 C   0  0  0  0  0  0  0  0  0  0  0  0
   12.7897    1.1724   12.8315 C   0  0  0  0  0  0  0  0  0  0  0  0
   13.6964    0.1177   13.5527 C   0  0  0  0  0  0  0  0  0  0  0  0
   14.7258    0.7796   14.3818 N   0  0  0  0  0  0  0  0  0  0  0  0
   14.3432    1.6150   15.5116 C   0  0  0  0  0  0  0  0  0  0  0  0
   15.5681    2.4428   15.8411 C   0  0  0  0  0  0  0  0  0  0  0  0
   16.2123    2.6269   14.4862 C   0  0  0  0  0  0  0  0  0  0  0  0
   15.9220    1.3134   13.7731 C   0  0  0  0  0  0  0  0  0  0  0  0
   12.7815   -0.7928   14.4300 C   0  0  0  0  0  0  0  0  0  0  0  0
   13.1945   -2.2422   14.5705 C   0  0  0  0  0  0  0  0  0  0  0  0
   14.6550   -2.3552   14.5269 N   0  0  0  0  0  0  0  0  0  0  0  0
   15.3803   -2.0829   15.6845 C   0  0  0  0  0  0  0  0  0  0  0  0
   16.8872   -2.2006   15.7014 C   0  0  0  0  0  0  0  0  0  0  0  0
   17.5134   -1.6518   16.7504 C   0  0  0  0  0  0  0  0  0  0  0  0
   16.7550   -1.0721   17.7598 N   0  0  0  0  0  0  0  0  0  0  0  0
   17.1218   -0.3868   18.8877 C   0  0  0  0  0  0  0  0  0  0  0  0
   15.9407   -0.0076   19.4799 C   0  0  0  0  0  0  0  0  0  0  0  0
   14.8716   -0.4541   18.7663 N   0  0  0  0  0  0  0  0  0  0  0  0
   15.3765   -1.1232   17.7551 C   0  0  0  0  0  0  0  0  0  0  0  0
   14.7053   -1.7027   16.7407 N   0  0  0  0  0  0  0  0  0  0  0  0
   15.1759   -1.9604   13.2148 C   0  0  0  0  0  0  0  0  0  0  0  0
   14.3340   -0.8674   12.5513 C   0  0  0  0  0  0  0  0  0  0  0  0
   12.6246    2.5988   11.2294 H   0  0  0  0  0  0  0  0  0  0  0  0
   14.1433    2.7145   12.1016 H   0  0  0  0  0  0  0  0  0  0  0  0
   13.8695    1.3865   10.9450 H   0  0  0  0  0  0  0  0  0  0  0  0
   11.9145    0.6716   12.4108 H   0  0  0  0  0  0  0  0  0  0  0  0
   12.3655    1.8717   13.5580 H   0  0  0  0  0  0  0  0  0  0  0  0
   13.5118    2.2867   15.2882 H   0  0  0  0  0  0  0  0  0  0  0  0
   14.1193    1.0035   16.3727 H   0  0  0  0  0  0  0  0  0  0  0  0
   15.3204    3.3937   16.3215 H   0  0  0  0  0  0  0  0  0  0  0  0
   16.2432    1.8876   16.5030 H   0  0  0  0  0  0  0  0  0  0  0  0
   17.2832    2.8374   14.5594 H   0  0  0  0  0  0  0  0  0  0  0  0
   15.7321    3.4587   13.9569 H   0  0  0  0  0  0  0  0  0  0  0  0
   15.8716    1.4797   12.6949 H   0  0  0  0  0  0  0  0  0  0  0  0
   16.7523    0.6204   13.9498 H   0  0  0  0  0  0  0  0  0  0  0  0
   11.7419   -0.7726   14.0823 H   0  0  0  0  0  0  0  0  0  0  0  0
   12.7877   -0.3905   15.4213 H   0  0  0  0  0  0  0  0  0  0  0  0
   12.7464   -2.7980   13.7377 H   0  0  0  0  0  0  0  0  0  0  0  0
   12.7729   -2.6947   15.4767 H   0  0  0  0  0  0  0  0  0  0  0  0
   17.3929   -2.6879   14.8814 H   0  0  0  0  0  0  0  0  0  0  0  0
   18.5889   -1.6337   16.8589 H   0  0  0  0  0  0  0  0  0  0  0  0
   18.1550   -0.2206   19.1529 H   0  0  0  0  0  0  0  0  0  0  0  0
   15.8112    0.5628   20.3907 H   0  0  0  0  0  0  0  0  0  0  0  0
   16.2104   -1.6096   13.2791 H   0  0  0  0  0  0  0  0  0  0  0  0
   15.2042   -2.8289   12.5499 H   0  0  0  0  0  0  0  0  0  0  0  0
   14.9563   -0.3618   11.8049 H   0  0  0  0  0  0  0  0  0  0  0  0
   13.5493   -1.3546   11.9720 H   0  0  0  0  0  0  0  0  0  0  0  0
  1  2  1  0
  2  3  1  0
  3  4  1  0
  4  5  1  0
  5  6  1  0
  6  7  1  0
  7  8  1  0
  3  9  1  0
  9 10  1  0
 10 11  1  0
 11 12  1  0
 12 13  1  0
 13 14  2  0
 14 15  1  0
 15 16  1  0
 16 17  2  0
 17 18  1  0
 18 19  2  0
 19 20  1  0
 11 21  1  0
 21 22  1  0
 22  3  1  0
  8  4  1  0
 20 12  2  0
 19 15  1  0
  1 23  1  0
  1 24  1  0
  1 25  1  0
  2 26  1  0
  2 27  1  0
  5 28  1  0
  5 29  1  0
  6 30  1  0
  6 31  1  0
  7 32  1  0
  7 33  1  0
  8 34  1  0
  8 35  1  0
  9 36  1  0
  9 37  1  0
 10 38  1  0
 10 39  1  0
 13 40  1  0
 14 41  1  0
 16 42  1  0
 17 43  1  0
 21 44  1  0
 21 45  1  0
 22 46  1  0
 22 47  1  0
M  END
>  <Energy>  (993) 
30.804675197386899

>  <compound_id>  (993) 
8816

>  <target_id>  (993) 
1

>  <reference_id>  (993) 
124

>  <inspiration_ids>  (993) 
[124, 106]

>  <energy_score>  (993) 
-25.307716816325893

>  <distance_score>  (993) 
2.9905678489823826

>  <path>  (993) 
/opt/xchem-fragalysis-2/maxwin/BulkDock/SCRATCH/511014/C8816-P124/C8816-P124.minimised.mol

>  <scratch_subdir>  (993) 
/opt/xchem-fragalysis-2/maxwin/BulkDock/SCRATCH/511014/C8816-P124

>  <fragmenstein_runtime>  (993) 
8.253179788589478

>  <fragmenstein_outcome>  (993) 
too moved

>  <fragmenstein_mode>  (993) 
expansion

>  <fragmenstein_error>  (993) 


$$$$
C8816-P106
     RDKit          3D

 47 50  0  0  0  0  0  0  0  0999 V2000
    9.4021   -0.9021   15.2477 C   0  0  0  0  0  0  0  0  0  0  0  0
   10.5053    0.1434   15.2276 C   0  0  0  0  0  0  0  0  0  0  0  0
   11.9855   -0.3620   15.2191 C   0  0  0  0  0  0  0  0  0  0  0  0
   12.8839    0.8054   15.3805 N   0  0  0  0  0  0  0  0  0  0  0  0
   12.9199    1.5341   16.6466 C   0  0  0  0  0  0  0  0  0  0  0  0
   13.8094    2.7416   16.3754 C   0  0  0  0  0  0  0  0  0  0  0  0
   13.9121    2.8222   14.8614 C   0  0  0  0  0  0  0  0  0  0  0  0
   12.8781    1.8308   14.3513 C   0  0  0  0  0  0  0  0  0  0  0  0
   12.2528   -1.4694   16.2877 C   0  0  0  0  0  0  0  0  0  0  0  0
   13.0167   -2.7046   15.7937 C   0  0  0  0  0  0  0  0  0  0  0  0
   14.1708   -2.3287   14.9666 N   0  0  0  0  0  0  0  0  0  0  0  0
   15.2613   -1.9270   15.7269 C   0  0  0  0  0  0  0  0  0  0  0  0
   16.2767   -2.9604   16.1332 C   0  0  0  0  0  0  0  0  0  0  0  0
   17.0351   -2.6339   17.1880 C   0  0  0  0  0  0  0  0  0  0  0  0
   16.8630   -1.3889   17.7840 N   0  0  0  0  0  0  0  0  0  0  0  0
   17.3448   -0.8842   18.9617 C   0  0  0  0  0  0  0  0  0  0  0  0
   16.8093    0.3779   19.0554 C   0  0  0  0  0  0  0  0  0  0  0  0
   16.0483    0.6707   17.9658 N   0  0  0  0  0  0  0  0  0  0  0  0
   16.0520   -0.4181   17.2316 C   0  0  0  0  0  0  0  0  0  0  0  0
   15.2840   -0.6988   16.1629 N   0  0  0  0  0  0  0  0  0  0  0  0
   13.7636   -1.5196   13.7991 C   0  0  0  0  0  0  0  0  0  0  0  0
   12.3053   -1.0442   13.8704 C   0  0  0  0  0  0  0  0  0  0  0  0
    8.8753   -0.8802   16.2002 H   0  0  0  0  0  0  0  0  0  0  0  0
    8.6452   -0.6619   14.4996 H   0  0  0  0  0  0  0  0  0  0  0  0
    9.7579   -1.9171   15.0643 H   0  0  0  0  0  0  0  0  0  0  0  0
   10.3273    0.7974   16.0873 H   0  0  0  0  0  0  0  0  0  0  0  0
   10.3359    0.7673   14.3403 H   0  0  0  0  0  0  0  0  0  0  0  0
   11.9308    1.9166   16.9113 H   0  0  0  0  0  0  0  0  0  0  0  0
   13.3076    0.9545   17.4861 H   0  0  0  0  0  0  0  0  0  0  0  0
   14.8044    2.6316   16.8150 H   0  0  0  0  0  0  0  0  0  0  0  0
   13.3626    3.6523   16.7890 H   0  0  0  0  0  0  0  0  0  0  0  0
   14.9179    2.5206   14.5436 H   0  0  0  0  0  0  0  0  0  0  0  0
   13.7313    3.8352   14.4891 H   0  0  0  0  0  0  0  0  0  0  0  0
   11.9061    2.3298   14.2661 H   0  0  0  0  0  0  0  0  0  0  0  0
   13.1757    1.4758   13.3611 H   0  0  0  0  0  0  0  0  0  0  0  0
   11.3063   -1.8491   16.6517 H   0  0  0  0  0  0  0  0  0  0  0  0
   12.7675   -1.0654   17.1611 H   0  0  0  0  0  0  0  0  0  0  0  0
   12.3453   -3.3532   15.2185 H   0  0  0  0  0  0  0  0  0  0  0  0
   13.3331   -3.3106   16.6527 H   0  0  0  0  0  0  0  0  0  0  0  0
   16.2932   -3.9114   15.6204 H   0  0  0  0  0  0  0  0  0  0  0  0
   17.7493   -3.3101   17.6364 H   0  0  0  0  0  0  0  0  0  0  0  0
   17.9928   -1.4503   19.6134 H   0  0  0  0  0  0  0  0  0  0  0  0
   16.9508    1.0983   19.8506 H   0  0  0  0  0  0  0  0  0  0  0  0
   14.4413   -0.6693   13.6583 H   0  0  0  0  0  0  0  0  0  0  0  0
   13.8817   -2.1400   12.9028 H   0  0  0  0  0  0  0  0  0  0  0  0
   12.1046   -0.3638   13.0395 H   0  0  0  0  0  0  0  0  0  0  0  0
   11.6486   -1.9050   13.7068 H   0  0  0  0  0  0  0  0  0  0  0  0
  1  2  1  0
  2  3  1  0
  3  4  1  0
  4  5  1  0
  5  6  1  0
  6  7  1  0
  7  8  1  0
  3  9  1  0
  9 10  1  0
 10 11  1  0
 11 12  1  0
 12 13  1  0
 13 14  2  0
 14 15  1  0
 15 16  1  0
 16 17  2  0
 17 18  1  0
 18 19  2  0
 19 20  1  0
 11 21  1  0
 21 22  1  0
 22  3  1  0
  8  4  1  0
 20 12  2  0
 19 15  1  0
  1 23  1  0
  1 24  1  0
  1 25  1  0
  2 26  1  0
  2 27  1  0
  5 28  1  0
  5 29  1  0
  6 30  1  0
  6 31  1  0
  7 32  1  0
  7 33  1  0
  8 34  1  0
  8 35  1  0
  9 36  1  0
  9 37  1  0
 10 38  1  0
 10 39  1  0
 13 40  1  0
 14 41  1  0
 16 42  1  0
 17 43  1  0
 21 44  1  0
 21 45  1  0
 22 46  1  0
 22 47  1  0
M  END
>  <Energy>  (994) 
42.741302067834773

>  <compound_id>  (994) 
8816

>  <target_id>  (994) 
1

>  <reference_id>  (994) 
106

>  <inspiration_ids>  (994) 
[124, 106]

>  <energy_score>  (994) 
-13.371089945879703

>  <distance_score>  (994) 
2.4499271859810476

>  <path>  (994) 
/opt/xchem-fragalysis-2/maxwin/BulkDock/SCRATCH/511014/C8816-P106/C8816-P106.minimised.mol

>  <scratch_subdir>  (994) 
/opt/xchem-fragalysis-2/maxwin/BulkDock/SCRATCH/511014/C8816-P106

>  <fragmenstein_runtime>  (994) 
8.116251945495605

>  <fragmenstein_outcome>  (994) 
too moved

>  <fragmenstein_mode>  (994) 
expansion

>  <fragmenstein_error>  (994) 


$$$$
C8817-P124
     RDKit          3D

 42 45  0  0  0  0  0  0  0  0999 V2000
   12.0289    2.3365   13.0883 C   0  0  0  0  0  0  0  0  0  0  0  0
   12.4128    0.8652   13.1359 C   0  0  0  0  0  0  0  0  0  0  0  0
   13.3851    0.5158   14.2086 C   0  0  0  0  0  0  0  0  0  0  0  0
   14.1205    1.5240   14.8258 C   0  0  0  0  0  0  0  0  0  0  0  0
   14.8698    1.2663   15.9398 C   0  0  0  0  0  0  0  0  0  0  0  0
   14.9246   -0.0136   16.4419 C   0  0  0  0  0  0  0  0  0  0  0  0
   15.8361   -0.2661   17.5803 C   0  0  0  0  0  0  0  0  0  0  0  0
   16.6508    0.8223   18.2954 C   0  0  0  0  0  0  0  0  0  0  0  0
   17.2313    0.0617   19.5075 C   0  0  0  0  0  0  0  0  0  0  0  0
   16.6002   -1.2930   19.4666 N   0  0  0  0  0  0  0  0  0  0  0  0
   17.2614   -2.3294   18.7510 C   0  0  0  0  0  0  0  0  0  0  0  0
   18.7588   -2.3441   18.5312 C   0  0  0  0  0  0  0  0  0  0  0  0
   19.1474   -2.7454   17.3088 C   0  0  0  0  0  0  0  0  0  0  0  0
   18.1893   -3.1967   16.4247 N   0  0  0  0  0  0  0  0  0  0  0  0
   18.2475   -3.3310   15.0700 C   0  0  0  0  0  0  0  0  0  0  0  0
   16.9308   -3.4369   14.6902 C   0  0  0  0  0  0  0  0  0  0  0  0
   16.1169   -3.6246   15.7693 N   0  0  0  0  0  0  0  0  0  0  0  0
   16.8857   -3.4388   16.8203 C   0  0  0  0  0  0  0  0  0  0  0  0
   16.4883   -3.1735   18.0940 N   0  0  0  0  0  0  0  0  0  0  0  0
   15.2910   -0.9999   18.8132 C   0  0  0  0  0  0  0  0  0  0  0  0
   14.2627   -1.0584   15.7694 C   0  0  0  0  0  0  0  0  0  0  0  0
   13.4961   -0.7986   14.6472 C   0  0  0  0  0  0  0  0  0  0  0  0
   11.7265    2.7718   14.0423 H   0  0  0  0  0  0  0  0  0  0  0  0
   12.8500    2.9436   12.6891 H   0  0  0  0  0  0  0  0  0  0  0  0
   11.1909    2.4656   12.3931 H   0  0  0  0  0  0  0  0  0  0  0  0
   11.4990    0.2708   13.2535 H   0  0  0  0  0  0  0  0  0  0  0  0
   12.8627    0.5985   12.1733 H   0  0  0  0  0  0  0  0  0  0  0  0
   14.0872    2.5507   14.4750 H   0  0  0  0  0  0  0  0  0  0  0  0
   15.4109    2.0914   16.3915 H   0  0  0  0  0  0  0  0  0  0  0  0
   16.6140   -0.8346   17.0593 H   0  0  0  0  0  0  0  0  0  0  0  0
   17.4432    1.2361   17.6627 H   0  0  0  0  0  0  0  0  0  0  0  0
   16.0208    1.6520   18.6374 H   0  0  0  0  0  0  0  0  0  0  0  0
   16.9414    0.5615   20.4390 H   0  0  0  0  0  0  0  0  0  0  0  0
   18.3235    0.0336   19.4818 H   0  0  0  0  0  0  0  0  0  0  0  0
   19.4186   -1.9543   19.2909 H   0  0  0  0  0  0  0  0  0  0  0  0
   20.1712   -2.6935   16.9644 H   0  0  0  0  0  0  0  0  0  0  0  0
   19.1566   -3.1977   14.5035 H   0  0  0  0  0  0  0  0  0  0  0  0
   16.5331   -3.4162   13.6867 H   0  0  0  0  0  0  0  0  0  0  0  0
   14.6831   -0.3477   19.4529 H   0  0  0  0  0  0  0  0  0  0  0  0
   14.6809   -1.8825   18.6000 H   0  0  0  0  0  0  0  0  0  0  0  0
   14.3243   -2.0802   16.1357 H   0  0  0  0  0  0  0  0  0  0  0  0
   12.9441   -1.6010   14.1648 H   0  0  0  0  0  0  0  0  0  0  0  0
  1  2  1  0
  2  3  1  0
  3  4  2  0
  4  5  1  0
  5  6  2  0
  6  7  1  0
  7  8  1  0
  8  9  1  0
  9 10  1  0
 10 11  1  0
 11 12  1  0
 12 13  2  0
 13 14  1  0
 14 15  1  0
 15 16  2  0
 16 17  1  0
 17 18  2  0
 18 19  1  0
 10 20  1  0
  6 21  1  0
 21 22  2  0
 22  3  1  0
 20  7  1  0
 19 11  2  0
 18 14  1  0
  1 23  1  0
  1 24  1  0
  1 25  1  0
  2 26  1  0
  2 27  1  0
  4 28  1  0
  5 29  1  0
  7 30  1  0
  8 31  1  0
  8 32  1  0
  9 33  1  0
  9 34  1  0
 12 35  1  0
 13 36  1  0
 15 37  1  0
 16 38  1  0
 20 39  1  0
 20 40  1  0
 21 41  1  0
 22 42  1  0
M  END
>  <Energy>  (995) 
84.937730369533242

>  <compound_id>  (995) 
8817

>  <target_id>  (995) 
1

>  <reference_id>  (995) 
124

>  <inspiration_ids>  (995) 
[124, 106]

>  <energy_score>  (995) 
26.708137891827022

>  <distance_score>  (995) 
3.519569181289835

>  <path>  (995) 
/opt/xchem-fragalysis-2/maxwin/BulkDock/SCRATCH/511014/C8817-P124/C8817-P124.minimised.mol

>  <scratch_subdir>  (995) 
/opt/xchem-fragalysis-2/maxwin/BulkDock/SCRATCH/511014/C8817-P124

>  <fragmenstein_runtime>  (995) 
123.50633478164673

>  <fragmenstein_outcome>  (995) 
too moved

>  <fragmenstein_mode>  (995) 
expansion

>  <fragmenstein_error>  (995) 


$$$$
C8817-P106
     RDKit          3D

 42 45  0  0  0  0  0  0  0  0999 V2000
   10.1671    1.7110   15.9034 C   0  0  0  0  0  0  0  0  0  0  0  0
   10.1224    0.3306   15.2387 C   0  0  0  0  0  0  0  0  0  0  0  0
   11.5242   -0.1423   15.0767 C   0  0  0  0  0  0  0  0  0  0  0  0
   12.0031   -1.1798   15.8722 C   0  0  0  0  0  0  0  0  0  0  0  0
   13.3230   -1.1494   16.2464 C   0  0  0  0  0  0  0  0  0  0  0  0
   14.1128   -0.0756   15.8177 C   0  0  0  0  0  0  0  0  0  0  0  0
   15.4195    0.1767   16.4812 C   0  0  0  0  0  0  0  0  0  0  0  0
   16.2174    1.4757   16.2603 C   0  0  0  0  0  0  0  0  0  0  0  0
   17.1769    1.5331   17.4751 C   0  0  0  0  0  0  0  0  0  0  0  0
   16.8720    0.3177   18.2707 N   0  0  0  0  0  0  0  0  0  0  0  0
   17.5225   -0.8959   17.9344 C   0  0  0  0  0  0  0  0  0  0  0  0
   18.8325   -0.9395   17.1742 C   0  0  0  0  0  0  0  0  0  0  0  0
   18.9744   -1.9681   16.3219 C   0  0  0  0  0  0  0  0  0  0  0  0
   17.9959   -2.9424   16.2874 N   0  0  0  0  0  0  0  0  0  0  0  0
   17.8135   -3.9832   15.4263 C   0  0  0  0  0  0  0  0  0  0  0  0
   16.5772   -4.4842   15.7571 C   0  0  0  0  0  0  0  0  0  0  0  0
   16.0502   -3.8525   16.8414 N   0  0  0  0  0  0  0  0  0  0  0  0
   16.9441   -2.9566   17.1879 C   0  0  0  0  0  0  0  0  0  0  0  0
   16.8169   -1.9895   18.1281 N   0  0  0  0  0  0  0  0  0  0  0  0
   15.4025    0.1712   18.0346 C   0  0  0  0  0  0  0  0  0  0  0  0
   13.6940    0.7322   14.7639 C   0  0  0  0  0  0  0  0  0  0  0  0
   12.3869    0.6840   14.3620 C   0  0  0  0  0  0  0  0  0  0  0  0
   10.9324    1.8083   16.6743 H   0  0  0  0  0  0  0  0  0  0  0  0
   10.3640    2.4913   15.1584 H   0  0  0  0  0  0  0  0  0  0  0  0
    9.1918    1.9396   16.3458 H   0  0  0  0  0  0  0  0  0  0  0  0
    9.6262    0.3820   14.2653 H   0  0  0  0  0  0  0  0  0  0  0  0
    9.5426   -0.3614   15.8592 H   0  0  0  0  0  0  0  0  0  0  0  0
   11.3398   -1.9214   16.2975 H   0  0  0  0  0  0  0  0  0  0  0  0
   13.7029   -1.8926   16.9460 H   0  0  0  0  0  0  0  0  0  0  0  0
   16.0448   -0.6211   16.0653 H   0  0  0  0  0  0  0  0  0  0  0  0
   16.7690    1.4554   15.3143 H   0  0  0  0  0  0  0  0  0  0  0  0
   15.5743    2.3635   16.2556 H   0  0  0  0  0  0  0  0  0  0  0  0
   18.2224    1.6128   17.1678 H   0  0  0  0  0  0  0  0  0  0  0  0
   16.9560    2.4198   18.0816 H   0  0  0  0  0  0  0  0  0  0  0  0
   19.5460   -0.1375   17.2806 H   0  0  0  0  0  0  0  0  0  0  0  0
   19.8179   -2.0765   15.6542 H   0  0  0  0  0  0  0  0  0  0  0  0
   18.5111   -4.2314   14.6415 H   0  0  0  0  0  0  0  0  0  0  0  0
   16.0515   -5.3001   15.2832 H   0  0  0  0  0  0  0  0  0  0  0  0
   14.9585   -0.7144   18.4994 H   0  0  0  0  0  0  0  0  0  0  0  0
   14.8585    1.0359   18.4401 H   0  0  0  0  0  0  0  0  0  0  0  0
   14.3478    1.4808   14.3275 H   0  0  0  0  0  0  0  0  0  0  0  0
   12.0078    1.4179   13.6566 H   0  0  0  0  0  0  0  0  0  0  0  0
  1  2  1  0
  2  3  1  0
  3  4  2  0
  4  5  1  0
  5  6  2  0
  6  7  1  0
  7  8  1  0
  8  9  1  0
  9 10  1  0
 10 11  1  0
 11 12  1  0
 12 13  2  0
 13 14  1  0
 14 15  1  0
 15 16  2  0
 16 17  1  0
 17 18  2  0
 18 19  1  0
 10 20  1  0
  6 21  1  0
 21 22  2  0
 22  3  1  0
 20  7  1  0
 19 11  2  0
 18 14  1  0
  1 23  1  0
  1 24  1  0
  1 25  1  0
  2 26  1  0
  2 27  1  0
  4 28  1  0
  5 29  1  0
  7 30  1  0
  8 31  1  0
  8 32  1  0
  9 33  1  0
  9 34  1  0
 12 35  1  0
 13 36  1  0
 15 37  1  0
 16 38  1  0
 20 39  1  0
 20 40  1  0
 21 41  1  0
 22 42  1  0
M  END
>  <Energy>  (996) 
84.685617043344067

>  <compound_id>  (996) 
8817

>  <target_id>  (996) 
1

>  <reference_id>  (996) 
106

>  <inspiration_ids>  (996) 
[124, 106]

>  <energy_score>  (996) 
26.456024565637108

>  <distance_score>  (996) 
2.7184053723986588

>  <path>  (996) 
/opt/xchem-fragalysis-2/maxwin/BulkDock/SCRATCH/511014/C8817-P106/C8817-P106.minimised.mol

>  <scratch_subdir>  (996) 
/opt/xchem-fragalysis-2/maxwin/BulkDock/SCRATCH/511014/C8817-P106

>  <fragmenstein_runtime>  (996) 
117.09709668159485

>  <fragmenstein_outcome>  (996) 
too moved

>  <fragmenstein_mode>  (996) 
expansion

>  <fragmenstein_error>  (996) 


$$$$
C8818-P124
     RDKit          3D

 41 43  0  0  0  0  0  0  0  0999 V2000
   15.0847    1.0401   19.0700 C   0  0  0  0  0  0  0  0  0  0  0  0
   14.8368   -0.4445   18.7690 C   0  0  0  0  0  0  0  0  0  0  0  0
   14.9100   -0.7075   17.2848 C   0  0  0  0  0  0  0  0  0  0  0  0
   14.1582   -1.7805   16.4430 C   0  0  0  0  0  0  0  0  0  0  0  0
   13.4304   -2.9229   17.1385 C   0  0  0  0  0  0  0  0  0  0  0  0
   13.4974   -1.0490   15.2059 C   0  0  0  0  0  0  0  0  0  0  0  0
   12.1014   -1.4987   14.7700 C   0  0  0  0  0  0  0  0  0  0  0  0
   12.4074   -2.6270   13.8530 C   0  0  0  0  0  0  0  0  0  0  0  0
   13.6246   -2.0885   13.0831 C   0  0  0  0  0  0  0  0  0  0  0  0
   14.3550   -1.2782   14.0248 N   0  0  0  0  0  0  0  0  0  0  0  0
   15.7300   -1.1747   14.1916 C   0  0  0  0  0  0  0  0  0  0  0  0
   16.6181   -2.3749   13.9813 C   0  0  0  0  0  0  0  0  0  0  0  0
   17.6917   -2.4574   14.7773 C   0  0  0  0  0  0  0  0  0  0  0  0
   17.9715   -1.3905   15.6089 N   0  0  0  0  0  0  0  0  0  0  0  0
   18.7889   -1.3198   16.7070 C   0  0  0  0  0  0  0  0  0  0  0  0
   18.5694   -0.0722   17.2460 C   0  0  0  0  0  0  0  0  0  0  0  0
   17.6813    0.6392   16.4863 N   0  0  0  0  0  0  0  0  0  0  0  0
   17.2939   -0.1762   15.5193 C   0  0  0  0  0  0  0  0  0  0  0  0
   16.1774   -0.0663   14.7410 N   0  0  0  0  0  0  0  0  0  0  0  0
   16.0980    1.3270   18.7710 H   0  0  0  0  0  0  0  0  0  0  0  0
   15.0008    1.2141   20.1478 H   0  0  0  0  0  0  0  0  0  0  0  0
   14.3888    1.7118   18.5684 H   0  0  0  0  0  0  0  0  0  0  0  0
   13.9343   -0.8059   19.2280 H   0  0  0  0  0  0  0  0  0  0  0  0
   15.6284   -1.0155   19.2748 H   0  0  0  0  0  0  0  0  0  0  0  0
   15.9364   -1.0591   17.2276 H   0  0  0  0  0  0  0  0  0  0  0  0
   14.8716    0.2618   16.7807 H   0  0  0  0  0  0  0  0  0  0  0  0
   14.9848   -2.3789   16.0443 H   0  0  0  0  0  0  0  0  0  0  0  0
   12.3628   -2.7595   17.2309 H   0  0  0  0  0  0  0  0  0  0  0  0
   13.5332   -3.8472   16.5570 H   0  0  0  0  0  0  0  0  0  0  0  0
   13.8641   -3.1317   18.1209 H   0  0  0  0  0  0  0  0  0  0  0  0
   13.4573    0.0331   15.3624 H   0  0  0  0  0  0  0  0  0  0  0  0
   11.6126   -0.7114   14.1845 H   0  0  0  0  0  0  0  0  0  0  0  0
   11.4269   -1.7950   15.5728 H   0  0  0  0  0  0  0  0  0  0  0  0
   12.6090   -3.4763   14.4957 H   0  0  0  0  0  0  0  0  0  0  0  0
   11.5627   -2.8925   13.2223 H   0  0  0  0  0  0  0  0  0  0  0  0
   14.2210   -2.8457   12.5763 H   0  0  0  0  0  0  0  0  0  0  0  0
   13.3005   -1.4028   12.2992 H   0  0  0  0  0  0  0  0  0  0  0  0
   16.3062   -3.1571   13.3144 H   0  0  0  0  0  0  0  0  0  0  0  0
   18.3340   -3.3254   14.8255 H   0  0  0  0  0  0  0  0  0  0  0  0
   19.4132   -2.1442   17.0172 H   0  0  0  0  0  0  0  0  0  0  0  0
   19.0201    0.3580   18.1309 H   0  0  0  0  0  0  0  0  0  0  0  0
  1  2  1  0
  2  3  1  0
  3  4  1  0
  4  5  1  0
  4  6  1  0
  6  7  1  0
  7  8  1  0
  8  9  1  0
  9 10  1  0
 10 11  1  0
 11 12  1  0
 12 13  2  0
 13 14  1  0
 14 15  1  0
 15 16  2  0
 16 17  1  0
 17 18  2  0
 18 19  1  0
 10  6  1  0
 19 11  2  0
 18 14  1  0
  1 20  1  0
  1 21  1  0
  1 22  1  0
  2 23  1  0
  2 24  1  0
  3 25  1  0
  3 26  1  0
  4 27  1  0
  5 28  1  0
  5 29  1  0
  5 30  1  0
  6 31  1  0
  7 32  1  0
  7 33  1  0
  8 34  1  0
  8 35  1  0
  9 36  1  0
  9 37  1  0
 12 38  1  0
 13 39  1  0
 15 40  1  0
 16 41  1  0
M  END
>  <Energy>  (997) 
68.287446736625441

>  <compound_id>  (997) 
8818

>  <target_id>  (997) 
1

>  <reference_id>  (997) 
124

>  <inspiration_ids>  (997) 
[124, 106]

>  <energy_score>  (997) 
22.21598994955596

>  <distance_score>  (997) 
2.495479854994775

>  <path>  (997) 
/opt/xchem-fragalysis-2/maxwin/BulkDock/SCRATCH/511014/C8818-P124/C8818-P124.minimised.mol

>  <scratch_subdir>  (997) 
/opt/xchem-fragalysis-2/maxwin/BulkDock/SCRATCH/511014/C8818-P124

>  <fragmenstein_runtime>  (997) 
7.4083943367004395

>  <fragmenstein_outcome>  (997) 
too moved

>  <fragmenstein_mode>  (997) 
expansion

>  <fragmenstein_error>  (997) 


$$$$
C8818-P106
     RDKit          3D

 41 43  0  0  0  0  0  0  0  0999 V2000
   12.6987    3.7520   15.9894 C   0  0  0  0  0  0  0  0  0  0  0  0
   13.0750    2.3834   16.4908 C   0  0  0  0  0  0  0  0  0  0  0  0
   12.5959    1.2571   15.5562 C   0  0  0  0  0  0  0  0  0  0  0  0
   13.4234    0.0035   15.8411 C   0  0  0  0  0  0  0  0  0  0  0  0
   13.2306   -0.4327   17.2804 C   0  0  0  0  0  0  0  0  0  0  0  0
   13.3120   -1.1578   14.8163 C   0  0  0  0  0  0  0  0  0  0  0  0
   11.9104   -1.6592   14.4906 C   0  0  0  0  0  0  0  0  0  0  0  0
   11.6405   -2.7944   15.4569 C   0  0  0  0  0  0  0  0  0  0  0  0
   12.9980   -3.2396   15.9729 C   0  0  0  0  0  0  0  0  0  0  0  0
   13.9915   -2.4006   15.2733 N   0  0  0  0  0  0  0  0  0  0  0  0
   15.2988   -2.3743   15.7545 C   0  0  0  0  0  0  0  0  0  0  0  0
   15.9919   -3.6659   16.1124 C   0  0  0  0  0  0  0  0  0  0  0  0
   17.0395   -3.5711   16.9383 C   0  0  0  0  0  0  0  0  0  0  0  0
   17.3859   -2.3211   17.4113 N   0  0  0  0  0  0  0  0  0  0  0  0
   18.1758   -1.9722   18.4710 C   0  0  0  0  0  0  0  0  0  0  0  0
   17.9653   -0.6230   18.6498 C   0  0  0  0  0  0  0  0  0  0  0  0
   17.1394   -0.1242   17.6835 N   0  0  0  0  0  0  0  0  0  0  0  0
   16.8064   -1.1587   16.9368 C   0  0  0  0  0  0  0  0  0  0  0  0
   15.8727   -1.2160   15.9599 N   0  0  0  0  0  0  0  0  0  0  0  0
   13.1568    3.9563   15.0163 H   0  0  0  0  0  0  0  0  0  0  0  0
   13.0362    4.5234   16.6889 H   0  0  0  0  0  0  0  0  0  0  0  0
   11.6132    3.8459   15.8818 H   0  0  0  0  0  0  0  0  0  0  0  0
   12.6376    2.2638   17.4862 H   0  0  0  0  0  0  0  0  0  0  0  0
   14.1650    2.3614   16.6091 H   0  0  0  0  0  0  0  0  0  0  0  0
   12.7389    1.5528   14.5099 H   0  0  0  0  0  0  0  0  0  0  0  0
   11.5252    1.0800   15.7060 H   0  0  0  0  0  0  0  0  0  0  0  0
   14.4439    0.3853   15.7562 H   0  0  0  0  0  0  0  0  0  0  0  0
   12.2196   -0.8150   17.3493 H   0  0  0  0  0  0  0  0  0  0  0  0
   13.9161   -1.2083   17.6199 H   0  0  0  0  0  0  0  0  0  0  0  0
   13.3753    0.3759   17.9982 H   0  0  0  0  0  0  0  0  0  0  0  0
   13.7805   -0.8215   13.8820 H   0  0  0  0  0  0  0  0  0  0  0  0
   11.9181   -2.0699   13.4735 H   0  0  0  0  0  0  0  0  0  0  0  0
   11.1413   -0.8841   14.5239 H   0  0  0  0  0  0  0  0  0  0  0  0
   11.0230   -2.4321   16.2743 H   0  0  0  0  0  0  0  0  0  0  0  0
   11.0923   -3.6078   14.9742 H   0  0  0  0  0  0  0  0  0  0  0  0
   13.0484   -3.1006   17.0584 H   0  0  0  0  0  0  0  0  0  0  0  0
   13.1620   -4.3045   15.8201 H   0  0  0  0  0  0  0  0  0  0  0  0
   15.6204   -4.5982   15.7181 H   0  0  0  0  0  0  0  0  0  0  0  0
   17.5847   -4.4263   17.3127 H   0  0  0  0  0  0  0  0  0  0  0  0
   18.7547   -2.6939   19.0275 H   0  0  0  0  0  0  0  0  0  0  0  0
   18.3843    0.0175   19.4150 H   0  0  0  0  0  0  0  0  0  0  0  0
  1  2  1  0
  2  3  1  0
  3  4  1  0
  4  5  1  0
  4  6  1  0
  6  7  1  0
  7  8  1  0
  8  9  1  0
  9 10  1  0
 10 11  1  0
 11 12  1  0
 12 13  2  0
 13 14  1  0
 14 15  1  0
 15 16  2  0
 16 17  1  0
 17 18  2  0
 18 19  1  0
 10  6  1  0
 19 11  2  0
 18 14  1  0
  1 20  1  0
  1 21  1  0
  1 22  1  0
  2 23  1  0
  2 24  1  0
  3 25  1  0
  3 26  1  0
  4 27  1  0
  5 28  1  0
  5 29  1  0
  5 30  1  0
  6 31  1  0
  7 32  1  0
  7 33  1  0
  8 34  1  0
  8 35  1  0
  9 36  1  0
  9 37  1  0
 12 38  1  0
 13 39  1  0
 15 40  1  0
 16 41  1  0
M  END
>  <Energy>  (998) 
34.872809536351525

>  <compound_id>  (998) 
8818

>  <target_id>  (998) 
1

>  <reference_id>  (998) 
106

>  <inspiration_ids>  (998) 
[124, 106]

>  <energy_score>  (998) 
-11.19864725071875

>  <distance_score>  (998) 
1.9367085014870118

>  <path>  (998) 
/opt/xchem-fragalysis-2/maxwin/BulkDock/SCRATCH/511014/C8818-P106/C8818-P106.minimised.mol

>  <scratch_subdir>  (998) 
/opt/xchem-fragalysis-2/maxwin/BulkDock/SCRATCH/511014/C8818-P106

>  <fragmenstein_runtime>  (998) 
6.817765712738037

>  <fragmenstein_outcome>  (998) 
too moved

>  <fragmenstein_mode>  (998) 
expansion

>  <fragmenstein_error>  (998) 


$$$$
C8819-P124
     RDKit          3D

 36 38  0  0  0  0  0  0  0  0999 V2000
   18.4673    1.3150   18.9588 N   0  0  0  0  0  0  0  0  0  0  0  0
   18.3750    0.0351   19.6336 C   0  0  0  0  0  0  0  0  0  0  0  0
   19.0551   -0.4390   20.4683 O   0  0  0  0  0  0  0  0  0  0  0  0
   17.2575   -0.5224   18.9091 N   0  0  0  0  0  0  0  0  0  0  0  0
   15.9570   -0.2224   19.6392 C   0  0  0  0  0  0  0  0  0  0  0  0
   15.7287   -1.1140   20.8386 C   0  0  0  0  0  0  0  0  0  0  0  0
   16.2168   -2.3958   20.2693 C   0  0  0  0  0  0  0  0  0  0  0  0
   16.6890   -1.9012   18.9109 C   0  0  0  0  0  0  0  0  0  0  0  0
   15.7330   -2.2631   17.7299 C   0  0  0  0  0  0  0  0  0  0  0  0
   15.6104   -1.1758   16.5122 O   0  0  0  0  0  0  0  0  0  0  0  0
   16.1492   -0.3453   14.7659 C   0  0  0  0  0  0  0  0  0  0  0  0
   17.1225   -0.5805   14.0289 O   0  0  0  0  0  0  0  0  0  0  0  0
   14.9079    0.7705   14.3064 C   0  0  0  0  0  0  0  0  0  0  0  0
   13.9482    0.1122   13.3687 C   0  0  0  0  0  0  0  0  0  0  0  0
   13.7090   -1.0706   13.9730 C   0  0  0  0  0  0  0  0  0  0  0  0
   14.4376   -1.2501   15.1970 N   0  0  0  0  0  0  0  0  0  0  0  0
   15.9525   -2.3321   15.1310 C   0  0  0  0  0  0  0  0  0  0  0  0
   17.2914   -1.4684   15.9585 C   0  0  0  0  0  0  0  0  0  0  0  0
   16.5928    0.2479   16.4761 N   0  0  0  0  0  0  0  0  0  0  0  0
   14.9119    0.3774   16.0857 C   0  0  0  0  0  0  0  0  0  0  0  0
   14.4756    1.4119   15.3414 N   0  0  0  0  0  0  0  0  0  0  0  0
   17.6265    1.4454   18.3612 H   0  0  0  0  0  0  0  0  0  0  0  0
   17.7615    1.3473   18.1915 H   0  0  0  0  0  0  0  0  0  0  0  0
   16.0175    0.8134   20.0031 H   0  0  0  0  0  0  0  0  0  0  0  0
   15.1014   -0.2014   18.9493 H   0  0  0  0  0  0  0  0  0  0  0  0
   16.3337   -0.8040   21.6971 H   0  0  0  0  0  0  0  0  0  0  0  0
   14.6793   -1.1388   21.1418 H   0  0  0  0  0  0  0  0  0  0  0  0
   17.0464   -2.7898   20.8670 H   0  0  0  0  0  0  0  0  0  0  0  0
   15.4442   -3.1678   20.2058 H   0  0  0  0  0  0  0  0  0  0  0  0
   17.5825   -2.5098   18.7000 H   0  0  0  0  0  0  0  0  0  0  0  0
   14.6937   -2.3025   18.0777 H   0  0  0  0  0  0  0  0  0  0  0  0
   15.9589   -3.2534   17.3156 H   0  0  0  0  0  0  0  0  0  0  0  0
   13.5901    0.5180   12.4421 H   0  0  0  0  0  0  0  0  0  0  0  0
   13.1558   -1.9018   13.5607 H   0  0  0  0  0  0  0  0  0  0  0  0
   15.8836   -3.1192   14.3928 H   0  0  0  0  0  0  0  0  0  0  0  0
   18.3656   -1.6077   16.0196 H   0  0  0  0  0  0  0  0  0  0  0  0
  1  2  1  0
  2  3  2  0
  2  4  1  0
  4  5  1  0
  5  6  1  0
  6  7  1  0
  7  8  1  0
  8  9  1  0
  9 10  1  0
 10 11  1  0
 11 12  2  0
 11 13  1  0
 13 14  1  0
 14 15  2  0
 15 16  1  0
 16 17  1  0
 17 18  2  0
 18 19  1  0
 19 20  2  0
 20 21  1  0
  8  4  1  0
 21 13  2  0
 20 16  1  0
  1 22  1  0
  1 23  1  0
  5 24  1  0
  5 25  1  0
  6 26  1  0
  6 27  1  0
  7 28  1  0
  7 29  1  0
  8 30  1  0
  9 31  1  0
  9 32  1  0
 14 33  1  0
 15 34  1  0
 17 35  1  0
 18 36  1  0
M  END
>  <Energy>  (999) 
1415.1295473964767

>  <compound_id>  (999) 
8819

>  <target_id>  (999) 
1

>  <reference_id>  (999) 
124

>  <inspiration_ids>  (999) 
[124, 106]

>  <energy_score>  (999) 
1338.8686193077203

>  <distance_score>  (999) 
3.131208558135306

>  <path>  (999) 
/opt/xchem-fragalysis-2/maxwin/BulkDock/SCRATCH/511014/C8819-P124/C8819-P124.minimised.mol

>  <scratch_subdir>  (999) 
/opt/xchem-fragalysis-2/maxwin/BulkDock/SCRATCH/511014/C8819-P124

>  <fragmenstein_runtime>  (999) 
3.602259874343872

>  <fragmenstein_outcome>  (999) 
too moved

>  <fragmenstein_mode>  (999) 
expansion

>  <fragmenstein_error>  (999) 


$$$$
C8819-P106
     RDKit          3D

 36 38  0  0  0  0  0  0  0  0999 V2000
   12.5072    4.1954   10.6385 N   0  0  0  0  0  0  0  0  0  0  0  0
   11.8021    3.0683   11.2201 C   0  0  0  0  0  0  0  0  0  0  0  0
   11.0910    2.2754   10.7224 O   0  0  0  0  0  0  0  0  0  0  0  0
   12.1604    3.2654   12.6184 N   0  0  0  0  0  0  0  0  0  0  0  0
   13.4059    2.4598   12.9610 C   0  0  0  0  0  0  0  0  0  0  0  0
   13.8668    2.6499   14.3903 C   0  0  0  0  0  0  0  0  0  0  0  0
   12.5544    2.8609   15.0544 C   0  0  0  0  0  0  0  0  0  0  0  0
   11.6436    2.5862   13.8751 C   0  0  0  0  0  0  0  0  0  0  0  0
   11.0939    1.1324   13.7361 C   0  0  0  0  0  0  0  0  0  0  0  0
   10.1218    0.8891   14.7739 O   0  0  0  0  0  0  0  0  0  0  0  0
   10.1929   -0.1529   15.6025 C   0  0  0  0  0  0  0  0  0  0  0  0
    9.2740   -0.4962   16.3420 O   0  0  0  0  0  0  0  0  0  0  0  0
   11.5126   -0.9006   15.7334 C   0  0  0  0  0  0  0  0  0  0  0  0
   11.4528   -2.3745   15.5092 C   0  0  0  0  0  0  0  0  0  0  0  0
   12.5392   -3.0406   15.9234 C   0  0  0  0  0  0  0  0  0  0  0  0
   13.6416   -2.3355   16.3792 N   0  0  0  0  0  0  0  0  0  0  0  0
   14.8605   -2.7818   16.8079 C   0  0  0  0  0  0  0  0  0  0  0  0
   15.5804   -1.6448   17.0883 C   0  0  0  0  0  0  0  0  0  0  0  0
   14.8345   -0.5174   16.8523 N   0  0  0  0  0  0  0  0  0  0  0  0
   13.6595   -0.9452   16.4419 C   0  0  0  0  0  0  0  0  0  0  0  0
   12.5451   -0.2221   16.1417 N   0  0  0  0  0  0  0  0  0  0  0  0
   13.1336    4.6064   11.3511 H   0  0  0  0  0  0  0  0  0  0  0  0
   12.9478    4.7461   11.3960 H   0  0  0  0  0  0  0  0  0  0  0  0
   13.3171    1.4100   12.6444 H   0  0  0  0  0  0  0  0  0  0  0  0
   14.2032    2.8361   12.3037 H   0  0  0  0  0  0  0  0  0  0  0  0
   14.5106    3.5289   14.4990 H   0  0  0  0  0  0  0  0  0  0  0  0
   14.4099    1.7750   14.7576 H   0  0  0  0  0  0  0  0  0  0  0  0
   12.3760    2.2361   15.9283 H   0  0  0  0  0  0  0  0  0  0  0  0
   12.4634    3.9060   15.3751 H   0  0  0  0  0  0  0  0  0  0  0  0
   10.7341    3.1727   14.0795 H   0  0  0  0  0  0  0  0  0  0  0  0
   11.8775    0.3732   13.7082 H   0  0  0  0  0  0  0  0  0  0  0  0
   10.5398    1.0383   12.8002 H   0  0  0  0  0  0  0  0  0  0  0  0
   10.5617   -2.8369   15.1071 H   0  0  0  0  0  0  0  0  0  0  0  0
   12.6173   -4.1190   15.9108 H   0  0  0  0  0  0  0  0  0  0  0  0
   15.1061   -3.8330   16.8638 H   0  0  0  0  0  0  0  0  0  0  0  0
   16.5988   -1.5772   17.4494 H   0  0  0  0  0  0  0  0  0  0  0  0
  1  2  1  0
  2  3  2  0
  2  4  1  0
  4  5  1  0
  5  6  1  0
  6  7  1  0
  7  8  1  0
  8  9  1  0
  9 10  1  0
 10 11  1  0
 11 12  2  0
 11 13  1  0
 13 14  1  0
 14 15  2  0
 15 16  1  0
 16 17  1  0
 17 18  2  0
 18 19  1  0
 19 20  2  0
 20 21  1  0
  8  4  1  0
 21 13  2  0
 20 16  1  0
  1 22  1  0
  1 23  1  0
  5 24  1  0
  5 25  1  0
  6 26  1  0
  6 27  1  0
  7 28  1  0
  7 29  1  0
  8 30  1  0
  9 31  1  0
  9 32  1  0
 14 33  1  0
 15 34  1  0
 17 35  1  0
 18 36  1  0
M  END
>  <Energy>  (1000) 
237.7627096732746

>  <compound_id>  (1000) 
8819

>  <target_id>  (1000) 
1

>  <reference_id>  (1000) 
106

>  <inspiration_ids>  (1000) 
[124, 106]

>  <energy_score>  (1000) 
161.5017815845158

>  <distance_score>  (1000) 
5.463502442084157

>  <path>  (1000) 
/opt/xchem-fragalysis-2/maxwin/BulkDock/SCRATCH/511014/C8819-P106/C8819-P106.minimised.mol

>  <scratch_subdir>  (1000) 
/opt/xchem-fragalysis-2/maxwin/BulkDock/SCRATCH/511014/C8819-P106

>  <fragmenstein_runtime>  (1000) 
5.9443700313568115

>  <fragmenstein_outcome>  (1000) 
too moved

>  <fragmenstein_mode>  (1000) 
expansion

>  <fragmenstein_error>  (1000) 


$$$$
C8820-P124
     RDKit          3D

 38 40  0  0  0  0  0  0  0  0999 V2000
   12.8288    0.8702   12.6535 O   0  0  0  0  0  0  0  0  0  0  0  0
   13.6946    0.5163   13.4458 C   0  0  0  0  0  0  0  0  0  0  0  0
   14.9059    1.1047   13.4632 O   0  0  0  0  0  0  0  0  0  0  0  0
   16.0384    0.6908   14.2781 C   0  0  0  0  0  0  0  0  0  0  0  0
   15.9579    1.3347   15.6903 C   0  0  0  0  0  0  0  0  0  0  0  0
   16.7017    2.6718   15.6891 C   0  0  0  0  0  0  0  0  0  0  0  0
   18.1309    2.2942   16.0259 C   0  0  0  0  0  0  0  0  0  0  0  0
   18.0278    0.9697   16.7711 C   0  0  0  0  0  0  0  0  0  0  0  0
   16.6403    0.5272   16.7125 N   0  0  0  0  0  0  0  0  0  0  0  0
   15.9690    0.5421   18.0339 C   0  0  0  0  0  0  0  0  0  0  0  0
   15.6650    1.8669   18.7476 C   0  0  0  0  0  0  0  0  0  0  0  0
   16.7628    2.6566   18.8304 F   0  0  0  0  0  0  0  0  0  0  0  0
   14.7097    2.5687   18.0848 F   0  0  0  0  0  0  0  0  0  0  0  0
   13.3941   -0.6575   14.4032 C   0  0  0  0  0  0  0  0  0  0  0  0
   12.1738   -1.4814   14.1216 C   0  0  0  0  0  0  0  0  0  0  0  0
   11.9934   -2.5569   14.9031 C   0  0  0  0  0  0  0  0  0  0  0  0
   12.9072   -2.8100   15.9133 N   0  0  0  0  0  0  0  0  0  0  0  0
   12.9493   -3.7977   16.8530 C   0  0  0  0  0  0  0  0  0  0  0  0
   14.0058   -3.4868   17.6726 C   0  0  0  0  0  0  0  0  0  0  0  0
   14.6114   -2.3323   17.2635 N   0  0  0  0  0  0  0  0  0  0  0  0
   13.9766   -1.9637   16.1714 C   0  0  0  0  0  0  0  0  0  0  0  0
   14.1900   -0.8726   15.4037 N   0  0  0  0  0  0  0  0  0  0  0  0
   16.9334    1.0311   13.7439 H   0  0  0  0  0  0  0  0  0  0  0  0
   16.1210   -0.4005   14.2819 H   0  0  0  0  0  0  0  0  0  0  0  0
   14.9046    1.5160   15.9325 H   0  0  0  0  0  0  0  0  0  0  0  0
   16.6336    3.2075   14.7365 H   0  0  0  0  0  0  0  0  0  0  0  0
   16.3072    3.3409   16.4604 H   0  0  0  0  0  0  0  0  0  0  0  0
   18.6160    3.0694   16.6275 H   0  0  0  0  0  0  0  0  0  0  0  0
   18.7155    2.1658   15.1076 H   0  0  0  0  0  0  0  0  0  0  0  0
   18.4114    1.0668   17.7935 H   0  0  0  0  0  0  0  0  0  0  0  0
   18.6637    0.2247   16.2783 H   0  0  0  0  0  0  0  0  0  0  0  0
   16.5678   -0.0803   18.7108 H   0  0  0  0  0  0  0  0  0  0  0  0
   15.0110    0.0302   17.9291 H   0  0  0  0  0  0  0  0  0  0  0  0
   15.2994    1.6824   19.7618 H   0  0  0  0  0  0  0  0  0  0  0  0
   11.4967   -1.1771   13.3415 H   0  0  0  0  0  0  0  0  0  0  0  0
   11.1550   -3.2343   14.7928 H   0  0  0  0  0  0  0  0  0  0  0  0
   12.2339   -4.6060   16.8621 H   0  0  0  0  0  0  0  0  0  0  0  0
   14.3488   -4.0169   18.5515 H   0  0  0  0  0  0  0  0  0  0  0  0
  1  2  2  0
  2  3  1  0
  3  4  1  0
  4  5  1  0
  5  6  1  0
  6  7  1  0
  7  8  1  0
  8  9  1  0
  9 10  1  0
 10 11  1  0
 11 12  1  0
 11 13  1  0
  2 14  1  0
 14 15  1  0
 15 16  2  0
 16 17  1  0
 17 18  1  0
 18 19  2  0
 19 20  1  0
 20 21  2  0
 21 22  1  0
  9  5  1  0
 22 14  2  0
 21 17  1  0
  4 23  1  0
  4 24  1  0
  5 25  1  0
  6 26  1  0
  6 27  1  0
  7 28  1  0
  7 29  1  0
  8 30  1  0
  8 31  1  0
 10 32  1  0
 10 33  1  0
 11 34  1  0
 15 35  1  0
 16 36  1  0
 18 37  1  0
 19 38  1  0
M  END
>  <Energy>  (1001) 
147.7883933601409

>  <compound_id>  (1001) 
8820

>  <target_id>  (1001) 
1

>  <reference_id>  (1001) 
124

>  <inspiration_ids>  (1001) 
[124, 106]

>  <energy_score>  (1001) 
-21.53444421619062

>  <distance_score>  (1001) 
3.081762367568552

>  <path>  (1001) 
/opt/xchem-fragalysis-2/maxwin/BulkDock/SCRATCH/511014/C8820-P124/C8820-P124.minimised.mol

>  <scratch_subdir>  (1001) 
/opt/xchem-fragalysis-2/maxwin/BulkDock/SCRATCH/511014/C8820-P124

>  <fragmenstein_runtime>  (1001) 
1.8768243789672852

>  <fragmenstein_outcome>  (1001) 
too moved

>  <fragmenstein_mode>  (1001) 
expansion

>  <fragmenstein_error>  (1001) 


$$$$
C8820-P106
     RDKit          3D

 38 40  0  0  0  0  0  0  0  0999 V2000
   13.8082   -4.7055   18.5146 O   0  0  0  0  0  0  0  0  0  0  0  0
   14.2650   -3.8026   17.8379 C   0  0  0  0  0  0  0  0  0  0  0  0
   15.5806   -3.6320   17.5789 O   0  0  0  0  0  0  0  0  0  0  0  0
   16.2071   -2.4752   18.1772 C   0  0  0  0  0  0  0  0  0  0  0  0
   16.5022   -1.4164   17.1088 C   0  0  0  0  0  0  0  0  0  0  0  0
   17.7049   -1.7370   16.2261 C   0  0  0  0  0  0  0  0  0  0  0  0
   18.0123   -0.3953   15.5580 C   0  0  0  0  0  0  0  0  0  0  0  0
   17.1811    0.6357   16.3254 C   0  0  0  0  0  0  0  0  0  0  0  0
   16.8624   -0.0642   17.5718 N   0  0  0  0  0  0  0  0  0  0  0  0
   15.8223    0.5942   18.3905 C   0  0  0  0  0  0  0  0  0  0  0  0
   15.7591    2.1285   18.4664 C   0  0  0  0  0  0  0  0  0  0  0  0
   16.9880    2.6620   18.6818 F   0  0  0  0  0  0  0  0  0  0  0  0
   15.2891    2.6570   17.3097 F   0  0  0  0  0  0  0  0  0  0  0  0
   13.3635   -2.8025   17.0998 C   0  0  0  0  0  0  0  0  0  0  0  0
   12.3564   -3.3842   16.1621 C   0  0  0  0  0  0  0  0  0  0  0  0
   11.7013   -2.5041   15.3931 C   0  0  0  0  0  0  0  0  0  0  0  0
   11.9643   -1.1545   15.5534 N   0  0  0  0  0  0  0  0  0  0  0  0
   11.4570   -0.0690   14.9082 C   0  0  0  0  0  0  0  0  0  0  0  0
   12.0578    1.0242   15.4839 C   0  0  0  0  0  0  0  0  0  0  0  0
   12.9092    0.6381   16.4822 N   0  0  0  0  0  0  0  0  0  0  0  0
   12.8502   -0.6745   16.5068 C   0  0  0  0  0  0  0  0  0  0  0  0
   13.5358   -1.5288   17.3057 N   0  0  0  0  0  0  0  0  0  0  0  0
   17.1332   -2.8156   18.6534 H   0  0  0  0  0  0  0  0  0  0  0  0
   15.5663   -2.0846   18.9763 H   0  0  0  0  0  0  0  0  0  0  0  0
   15.6578   -1.3549   16.4162 H   0  0  0  0  0  0  0  0  0  0  0  0
   17.4846   -2.5152   15.4883 H   0  0  0  0  0  0  0  0  0  0  0  0
   18.5663   -2.0644   16.8211 H   0  0  0  0  0  0  0  0  0  0  0  0
   17.7342   -0.4059   14.4988 H   0  0  0  0  0  0  0  0  0  0  0  0
   19.0840   -0.1779   15.6262 H   0  0  0  0  0  0  0  0  0  0  0  0
   17.7575    1.5502   16.4949 H   0  0  0  0  0  0  0  0  0  0  0  0
   16.2786    0.8876   15.7539 H   0  0  0  0  0  0  0  0  0  0  0  0
   15.9677    0.2310   19.4147 H   0  0  0  0  0  0  0  0  0  0  0  0
   14.8340    0.2788   18.0796 H   0  0  0  0  0  0  0  0  0  0  0  0
   15.0981    2.4502   19.2764 H   0  0  0  0  0  0  0  0  0  0  0  0
   12.2061   -4.4546   16.1563 H   0  0  0  0  0  0  0  0  0  0  0  0
   10.9617   -2.7919   14.6548 H   0  0  0  0  0  0  0  0  0  0  0  0
   10.7371   -0.1604   14.1062 H   0  0  0  0  0  0  0  0  0  0  0  0
   11.9220    2.0698   15.2382 H   0  0  0  0  0  0  0  0  0  0  0  0
  1  2  2  0
  2  3  1  0
  3  4  1  0
  4  5  1  0
  5  6  1  0
  6  7  1  0
  7  8  1  0
  8  9  1  0
  9 10  1  0
 10 11  1  0
 11 12  1  0
 11 13  1  0
  2 14  1  0
 14 15  1  0
 15 16  2  0
 16 17  1  0
 17 18  1  0
 18 19  2  0
 19 20  1  0
 20 21  2  0
 21 22  1  0
  9  5  1  0
 22 14  2  0
 21 17  1  0
  4 23  1  0
  4 24  1  0
  5 25  1  0
  6 26  1  0
  6 27  1  0
  7 28  1  0
  7 29  1  0
  8 30  1  0
  8 31  1  0
 10 32  1  0
 10 33  1  0
 11 34  1  0
 15 35  1  0
 16 36  1  0
 18 37  1  0
 19 38  1  0
M  END
>  <Energy>  (1002) 
143.53896885977889

>  <compound_id>  (1002) 
8820

>  <target_id>  (1002) 
1

>  <reference_id>  (1002) 
106

>  <inspiration_ids>  (1002) 
[124, 106]

>  <energy_score>  (1002) 
-25.78386871655306

>  <distance_score>  (1002) 
2.5606217317416045

>  <path>  (1002) 
/opt/xchem-fragalysis-2/maxwin/BulkDock/SCRATCH/511014/C8820-P106/C8820-P106.minimised.mol

>  <scratch_subdir>  (1002) 
/opt/xchem-fragalysis-2/maxwin/BulkDock/SCRATCH/511014/C8820-P106

>  <fragmenstein_runtime>  (1002) 
2.7642769813537598

>  <fragmenstein_outcome>  (1002) 
too moved

>  <fragmenstein_mode>  (1002) 
expansion

>  <fragmenstein_error>  (1002) 


$$$$
C8821-P124
     RDKit          3D

 37 39  0  0  0  0  0  0  0  0999 V2000
   17.2351    4.6374    9.8059 C   0  0  0  0  0  0  0  0  0  0  0  0
   15.8777    4.1218   10.2330 C   0  0  0  0  0  0  0  0  0  0  0  0
   15.2274    3.4078    9.5615 O   0  0  0  0  0  0  0  0  0  0  0  0
   15.5996    4.6984   11.6088 N   0  0  0  0  0  0  0  0  0  0  0  0
   16.1179    3.7916   12.6955 C   0  0  0  0  0  0  0  0  0  0  0  0
   15.9502    4.3412   14.0924 C   0  0  0  0  0  0  0  0  0  0  0  0
   14.6303    4.9968   13.9320 C   0  0  0  0  0  0  0  0  0  0  0  0
   14.3545    4.6119   12.4906 C   0  0  0  0  0  0  0  0  0  0  0  0
   13.3638    3.4227   12.2833 C   0  0  0  0  0  0  0  0  0  0  0  0
   13.6441    2.3487   13.1885 O   0  0  0  0  0  0  0  0  0  0  0  0
   12.7839    1.3112   13.1291 C   0  0  0  0  0  0  0  0  0  0  0  0
   11.8108    1.2173   12.4019 O   0  0  0  0  0  0  0  0  0  0  0  0
   13.2244    0.2096   14.1110 C   0  0  0  0  0  0  0  0  0  0  0  0
   12.4528   -1.0806   14.0496 C   0  0  0  0  0  0  0  0  0  0  0  0
   12.8694   -2.0498   14.8751 C   0  0  0  0  0  0  0  0  0  0  0  0
   13.9371   -1.7937   15.7233 N   0  0  0  0  0  0  0  0  0  0  0  0
   14.4975   -2.5830   16.6923 C   0  0  0  0  0  0  0  0  0  0  0  0
   15.4081   -1.7764   17.3316 C   0  0  0  0  0  0  0  0  0  0  0  0
   15.4120   -0.5152   16.7920 N   0  0  0  0  0  0  0  0  0  0  0  0
   14.5587   -0.5437   15.7882 C   0  0  0  0  0  0  0  0  0  0  0  0
   14.2010    0.4608   14.9418 N   0  0  0  0  0  0  0  0  0  0  0  0
   17.5666    5.4767   10.4236 H   0  0  0  0  0  0  0  0  0  0  0  0
   17.9646    3.8268    9.8818 H   0  0  0  0  0  0  0  0  0  0  0  0
   17.1739    4.9820    8.7698 H   0  0  0  0  0  0  0  0  0  0  0  0
   15.8098    2.7466   12.5509 H   0  0  0  0  0  0  0  0  0  0  0  0
   17.2010    3.7250   12.5118 H   0  0  0  0  0  0  0  0  0  0  0  0
   15.9602    3.5506   14.8481 H   0  0  0  0  0  0  0  0  0  0  0  0
   16.7279    5.0717   14.3395 H   0  0  0  0  0  0  0  0  0  0  0  0
   14.7241    6.0829   14.0437 H   0  0  0  0  0  0  0  0  0  0  0  0
   13.8719    4.6427   14.6361 H   0  0  0  0  0  0  0  0  0  0  0  0
   13.7768    5.4502   12.0697 H   0  0  0  0  0  0  0  0  0  0  0  0
   13.3895    3.0587   11.2521 H   0  0  0  0  0  0  0  0  0  0  0  0
   12.3507    3.7861   12.4996 H   0  0  0  0  0  0  0  0  0  0  0  0
   11.6034   -1.1708   13.3901 H   0  0  0  0  0  0  0  0  0  0  0  0
   12.3908   -3.0186   14.9368 H   0  0  0  0  0  0  0  0  0  0  0  0
   14.1987   -3.6096   16.8465 H   0  0  0  0  0  0  0  0  0  0  0  0
   16.0520   -2.0300   18.1645 H   0  0  0  0  0  0  0  0  0  0  0  0
  1  2  1  0
  2  3  2  0
  2  4  1  0
  4  5  1  0
  5  6  1  0
  6  7  1  0
  7  8  1  0
  8  9  1  0
  9 10  1  0
 10 11  1  0
 11 12  2  0
 11 13  1  0
 13 14  1  0
 14 15  2  0
 15 16  1  0
 16 17  1  0
 17 18  2  0
 18 19  1  0
 19 20  2  0
 20 21  1  0
  8  4  1  0
 21 13  2  0
 20 16  1  0
  1 22  1  0
  1 23  1  0
  1 24  1  0
  5 25  1  0
  5 26  1  0
  6 27  1  0
  6 28  1  0
  7 29  1  0
  7 30  1  0
  8 31  1  0
  9 32  1  0
  9 33  1  0
 14 34  1  0
 15 35  1  0
 17 36  1  0
 18 37  1  0
M  END
>  <Energy>  (1003) 
140.27041574806387

>  <compound_id>  (1003) 
8821

>  <target_id>  (1003) 
1

>  <reference_id>  (1003) 
124

>  <inspiration_ids>  (1003) 
[124, 106]

>  <energy_score>  (1003) 
10.686172556210607

>  <distance_score>  (1003) 
6.055834321046018

>  <path>  (1003) 
/opt/xchem-fragalysis-2/maxwin/BulkDock/SCRATCH/511014/C8821-P124/C8821-P124.minimised.mol

>  <scratch_subdir>  (1003) 
/opt/xchem-fragalysis-2/maxwin/BulkDock/SCRATCH/511014/C8821-P124

>  <fragmenstein_runtime>  (1003) 
2.88468074798584

>  <fragmenstein_outcome>  (1003) 
too moved

>  <fragmenstein_mode>  (1003) 
expansion

>  <fragmenstein_error>  (1003) 


$$$$
C8821-P106
     RDKit          3D

 37 39  0  0  0  0  0  0  0  0999 V2000
   20.6631   -3.8863   18.7616 C   0  0  0  0  0  0  0  0  0  0  0  0
   19.3390   -4.4358   18.2764 C   0  0  0  0  0  0  0  0  0  0  0  0
   18.6535   -5.1231   18.9400 O   0  0  0  0  0  0  0  0  0  0  0  0
   19.1392   -3.9221   16.8629 N   0  0  0  0  0  0  0  0  0  0  0  0
   18.4194   -2.5962   16.8599 C   0  0  0  0  0  0  0  0  0  0  0  0
   18.2834   -1.9889   15.4811 C   0  0  0  0  0  0  0  0  0  0  0  0
   18.0668   -3.2296   14.6940 C   0  0  0  0  0  0  0  0  0  0  0  0
   18.0442   -4.2231   15.8406 C   0  0  0  0  0  0  0  0  0  0  0  0
   16.6300   -4.6496   16.3575 C   0  0  0  0  0  0  0  0  0  0  0  0
   15.6949   -3.5705   16.2253 O   0  0  0  0  0  0  0  0  0  0  0  0
   14.5934   -3.6367   17.0001 C   0  0  0  0  0  0  0  0  0  0  0  0
   14.2632   -4.4849   17.8018 O   0  0  0  0  0  0  0  0  0  0  0  0
   13.7453   -2.4254   16.6628 C   0  0  0  0  0  0  0  0  0  0  0  0
   12.4766   -2.7090   15.9164 C   0  0  0  0  0  0  0  0  0  0  0  0
   11.8139   -1.6240   15.4997 C   0  0  0  0  0  0  0  0  0  0  0  0
   12.3092   -0.3723   15.8332 N   0  0  0  0  0  0  0  0  0  0  0  0
   11.8115    0.8643   15.5567 C   0  0  0  0  0  0  0  0  0  0  0  0
   12.6618    1.7528   16.1710 C   0  0  0  0  0  0  0  0  0  0  0  0
   13.6752    1.0916   16.8108 N   0  0  0  0  0  0  0  0  0  0  0  0
   13.4627   -0.1867   16.5901 C   0  0  0  0  0  0  0  0  0  0  0  0
   14.2008   -1.2503   16.9933 N   0  0  0  0  0  0  0  0  0  0  0  0
   20.4747   -3.0900   19.4864 H   0  0  0  0  0  0  0  0  0  0  0  0
   21.2284   -4.6921   19.2384 H   0  0  0  0  0  0  0  0  0  0  0  0
   21.2663   -3.4880   17.9409 H   0  0  0  0  0  0  0  0  0  0  0  0
   19.0632   -1.9214   17.4438 H   0  0  0  0  0  0  0  0  0  0  0  0
   17.5034   -2.6111   17.4687 H   0  0  0  0  0  0  0  0  0  0  0  0
   17.4504   -1.2822   15.4267 H   0  0  0  0  0  0  0  0  0  0  0  0
   19.1988   -1.4761   15.1678 H   0  0  0  0  0  0  0  0  0  0  0  0
   18.9164   -3.4142   14.0267 H   0  0  0  0  0  0  0  0  0  0  0  0
   17.1542   -3.2192   14.0924 H   0  0  0  0  0  0  0  0  0  0  0  0
   18.4292   -5.1692   15.4288 H   0  0  0  0  0  0  0  0  0  0  0  0
   16.6724   -5.0245   17.3839 H   0  0  0  0  0  0  0  0  0  0  0  0
   16.2656   -5.4519   15.7083 H   0  0  0  0  0  0  0  0  0  0  0  0
   12.1723   -3.7298   15.7330 H   0  0  0  0  0  0  0  0  0  0  0  0
   10.9011   -1.6703   14.9167 H   0  0  0  0  0  0  0  0  0  0  0  0
   10.9185    1.0098   14.9666 H   0  0  0  0  0  0  0  0  0  0  0  0
   12.5964    2.8334   16.1955 H   0  0  0  0  0  0  0  0  0  0  0  0
  1  2  1  0
  2  3  2  0
  2  4  1  0
  4  5  1  0
  5  6  1  0
  6  7  1  0
  7  8  1  0
  8  9  1  0
  9 10  1  0
 10 11  1  0
 11 12  2  0
 11 13  1  0
 13 14  1  0
 14 15  2  0
 15 16  1  0
 16 17  1  0
 17 18  2  0
 18 19  1  0
 19 20  2  0
 20 21  1  0
  8  4  1  0
 21 13  2  0
 20 16  1  0
  1 22  1  0
  1 23  1  0
  1 24  1  0
  5 25  1  0
  5 26  1  0
  6 27  1  0
  6 28  1  0
  7 29  1  0
  7 30  1  0
  8 31  1  0
  9 32  1  0
  9 33  1  0
 14 34  1  0
 15 35  1  0
 17 36  1  0
 18 37  1  0
M  END
>  <Energy>  (1004) 
141.95783471233099

>  <compound_id>  (1004) 
8821

>  <target_id>  (1004) 
1

>  <reference_id>  (1004) 
106

>  <inspiration_ids>  (1004) 
[124, 106]

>  <energy_score>  (1004) 
12.373591520476737

>  <distance_score>  (1004) 
4.055782735965397

>  <path>  (1004) 
/opt/xchem-fragalysis-2/maxwin/BulkDock/SCRATCH/511014/C8821-P106/C8821-P106.minimised.mol

>  <scratch_subdir>  (1004) 
/opt/xchem-fragalysis-2/maxwin/BulkDock/SCRATCH/511014/C8821-P106

>  <fragmenstein_runtime>  (1004) 
1.774397850036621

>  <fragmenstein_outcome>  (1004) 
too moved

>  <fragmenstein_mode>  (1004) 
expansion

>  <fragmenstein_error>  (1004) 


$$$$
C8822-P124
     RDKit          3D

 37 39  0  0  0  0  0  0  0  0999 V2000
   13.1069   -3.8277   16.9622 C   0  0  0  0  0  0  0  0  0  0  0  0
   13.2935   -2.7847   15.9049 C   0  0  0  0  0  0  0  0  0  0  0  0
   14.6164   -2.0322   15.9611 C   0  0  0  0  0  0  0  0  0  0  0  0
   15.9303   -2.6103   16.5601 C   0  0  0  0  0  0  0  0  0  0  0  0
   16.3672   -3.7713   15.6761 C   0  0  0  0  0  0  0  0  0  0  0  0
   17.7881   -3.8827   16.0724 C   0  0  0  0  0  0  0  0  0  0  0  0
   17.8573   -2.7233   17.0201 C   0  0  0  0  0  0  0  0  0  0  0  0
   17.1035   -1.5354   16.5350 N   0  0  0  0  0  0  0  0  0  0  0  0
   16.6997   -0.2639   17.2515 C   0  0  0  0  0  0  0  0  0  0  0  0
   16.8194    0.0443   18.3798 O   0  0  0  0  0  0  0  0  0  0  0  0
   15.9454    0.6850   16.2972 C   0  0  0  0  0  0  0  0  0  0  0  0
   15.2899    1.8824   16.9207 C   0  0  0  0  0  0  0  0  0  0  0  0
   14.3567    2.4697   16.1555 C   0  0  0  0  0  0  0  0  0  0  0  0
   14.0222    1.8909   14.9398 N   0  0  0  0  0  0  0  0  0  0  0  0
   13.0205    2.1690   14.0604 C   0  0  0  0  0  0  0  0  0  0  0  0
   12.9351    1.0589   13.2513 C   0  0  0  0  0  0  0  0  0  0  0  0
   13.9818    0.2202   13.4770 N   0  0  0  0  0  0  0  0  0  0  0  0
   14.6855    0.7868   14.4383 C   0  0  0  0  0  0  0  0  0  0  0  0
   15.7978    0.3104   15.0587 N   0  0  0  0  0  0  0  0  0  0  0  0
   13.8142   -4.6300   16.7985 H   0  0  0  0  0  0  0  0  0  0  0  0
   13.2668   -3.4354   17.9669 H   0  0  0  0  0  0  0  0  0  0  0  0
   12.1034   -4.2560   16.9022 H   0  0  0  0  0  0  0  0  0  0  0  0
   13.1463   -3.2239   14.9244 H   0  0  0  0  0  0  0  0  0  0  0  0
   12.4644   -2.0730   15.9539 H   0  0  0  0  0  0  0  0  0  0  0  0
   14.3797   -1.1386   16.5339 H   0  0  0  0  0  0  0  0  0  0  0  0
   14.8196   -1.7674   14.9226 H   0  0  0  0  0  0  0  0  0  0  0  0
   15.6886   -2.8864   17.6007 H   0  0  0  0  0  0  0  0  0  0  0  0
   16.2959   -3.5248   14.6110 H   0  0  0  0  0  0  0  0  0  0  0  0
   15.8076   -4.6869   15.8534 H   0  0  0  0  0  0  0  0  0  0  0  0
   18.4521   -3.7508   15.2116 H   0  0  0  0  0  0  0  0  0  0  0  0
   18.0349   -4.8291   16.5615 H   0  0  0  0  0  0  0  0  0  0  0  0
   17.6293   -2.9635   18.0725 H   0  0  0  0  0  0  0  0  0  0  0  0
   18.9011   -2.3840   17.0742 H   0  0  0  0  0  0  0  0  0  0  0  0
   15.5859    2.2150   17.9057 H   0  0  0  0  0  0  0  0  0  0  0  0
   13.7915    3.3390   16.4645 H   0  0  0  0  0  0  0  0  0  0  0  0
   12.3779    3.0304   14.1632 H   0  0  0  0  0  0  0  0  0  0  0  0
   12.1842    0.8506   12.5035 H   0  0  0  0  0  0  0  0  0  0  0  0
  1  2  1  0
  2  3  1  0
  3  4  1  0
  4  5  1  0
  5  6  1  0
  6  7  1  0
  7  8  1  0
  8  9  1  0
  9 10  2  0
  9 11  1  0
 11 12  1  0
 12 13  2  0
 13 14  1  0
 14 15  1  0
 15 16  2  0
 16 17  1  0
 17 18  2  0
 18 19  1  0
  8  4  1  0
 19 11  2  0
 18 14  1  0
  1 20  1  0
  1 21  1  0
  1 22  1  0
  2 23  1  0
  2 24  1  0
  3 25  1  0
  3 26  1  0
  4 27  1  0
  5 28  1  0
  5 29  1  0
  6 30  1  0
  6 31  1  0
  7 32  1  0
  7 33  1  0
 12 34  1  0
 13 35  1  0
 15 36  1  0
 16 37  1  0
M  END
>  <Energy>  (1005) 
158.0687499001431

>  <compound_id>  (1005) 
8822

>  <target_id>  (1005) 
1

>  <reference_id>  (1005) 
124

>  <inspiration_ids>  (1005) 
[124, 106]

>  <energy_score>  (1005) 
44.372614326398164

>  <distance_score>  (1005) 
2.7961835337433993

>  <path>  (1005) 
/opt/xchem-fragalysis-2/maxwin/BulkDock/SCRATCH/511014/C8822-P124/C8822-P124.minimised.mol

>  <scratch_subdir>  (1005) 
/opt/xchem-fragalysis-2/maxwin/BulkDock/SCRATCH/511014/C8822-P124

>  <fragmenstein_runtime>  (1005) 
2.4533376693725586

>  <fragmenstein_outcome>  (1005) 
too moved

>  <fragmenstein_mode>  (1005) 
expansion

>  <fragmenstein_error>  (1005) 


$$$$
C8822-P106
     RDKit          3D

 37 39  0  0  0  0  0  0  0  0999 V2000
   13.4580   -2.1147   14.1956 C   0  0  0  0  0  0  0  0  0  0  0  0
   14.8411   -1.9475   14.8040 C   0  0  0  0  0  0  0  0  0  0  0  0
   15.0986   -2.8702   16.0010 C   0  0  0  0  0  0  0  0  0  0  0  0
   16.3955   -2.5773   16.8053 C   0  0  0  0  0  0  0  0  0  0  0  0
   17.5644   -3.0081   15.9085 C   0  0  0  0  0  0  0  0  0  0  0  0
   18.5719   -2.0138   16.3171 C   0  0  0  0  0  0  0  0  0  0  0  0
   17.8779   -1.5217   17.5447 C   0  0  0  0  0  0  0  0  0  0  0  0
   16.4743   -1.0962   17.2895 N   0  0  0  0  0  0  0  0  0  0  0  0
   15.3532   -0.7734   18.2517 C   0  0  0  0  0  0  0  0  0  0  0  0
   15.3075   -0.8605   19.4209 O   0  0  0  0  0  0  0  0  0  0  0  0
   14.1841   -0.1582   17.5047 C   0  0  0  0  0  0  0  0  0  0  0  0
   14.3473    1.2637   17.0878 C   0  0  0  0  0  0  0  0  0  0  0  0
   13.3836    1.7171   16.2724 C   0  0  0  0  0  0  0  0  0  0  0  0
   12.3298    0.8798   15.9332 N   0  0  0  0  0  0  0  0  0  0  0  0
   11.2642    1.0740   15.1034 C   0  0  0  0  0  0  0  0  0  0  0  0
   10.5215   -0.0822   15.1676 C   0  0  0  0  0  0  0  0  0  0  0  0
   11.0810   -0.9639   16.0418 N   0  0  0  0  0  0  0  0  0  0  0  0
   12.2024   -0.4021   16.4468 C   0  0  0  0  0  0  0  0  0  0  0  0
   13.1638   -0.9197   17.2509 N   0  0  0  0  0  0  0  0  0  0  0  0
   12.7667   -2.6788   14.8258 H   0  0  0  0  0  0  0  0  0  0  0  0
   13.0327   -1.1356   13.9625 H   0  0  0  0  0  0  0  0  0  0  0  0
   13.5215   -2.6014   13.2176 H   0  0  0  0  0  0  0  0  0  0  0  0
   15.5799   -2.1378   14.0178 H   0  0  0  0  0  0  0  0  0  0  0  0
   14.9825   -0.9003   15.0806 H   0  0  0  0  0  0  0  0  0  0  0  0
   14.2480   -2.8849   16.6847 H   0  0  0  0  0  0  0  0  0  0  0  0
   15.1626   -3.9057   15.6469 H   0  0  0  0  0  0  0  0  0  0  0  0
   16.3205   -3.2294   17.6952 H   0  0  0  0  0  0  0  0  0  0  0  0
   17.3840   -2.9573   14.8323 H   0  0  0  0  0  0  0  0  0  0  0  0
   17.8654   -4.0354   16.1434 H   0  0  0  0  0  0  0  0  0  0  0  0
   18.6767   -1.2181   15.5714 H   0  0  0  0  0  0  0  0  0  0  0  0
   19.5566   -2.4426   16.5197 H   0  0  0  0  0  0  0  0  0  0  0  0
   17.9588   -2.1810   18.4268 H   0  0  0  0  0  0  0  0  0  0  0  0
   18.3807   -0.6037   17.8791 H   0  0  0  0  0  0  0  0  0  0  0  0
   15.2092    1.8314   17.4074 H   0  0  0  0  0  0  0  0  0  0  0  0
   13.3800    2.7172   15.8590 H   0  0  0  0  0  0  0  0  0  0  0  0
   11.1270    1.9861   14.5420 H   0  0  0  0  0  0  0  0  0  0  0  0
    9.6062   -0.3143   14.6357 H   0  0  0  0  0  0  0  0  0  0  0  0
  1  2  1  0
  2  3  1  0
  3  4  1  0
  4  5  1  0
  5  6  1  0
  6  7  1  0
  7  8  1  0
  8  9  1  0
  9 10  2  0
  9 11  1  0
 11 12  1  0
 12 13  2  0
 13 14  1  0
 14 15  1  0
 15 16  2  0
 16 17  1  0
 17 18  2  0
 18 19  1  0
  8  4  1  0
 19 11  2  0
 18 14  1  0
  1 20  1  0
  1 21  1  0
  1 22  1  0
  2 23  1  0
  2 24  1  0
  3 25  1  0
  3 26  1  0
  4 27  1  0
  5 28  1  0
  5 29  1  0
  6 30  1  0
  6 31  1  0
  7 32  1  0
  7 33  1  0
 12 34  1  0
 13 35  1  0
 15 36  1  0
 16 37  1  0
M  END
>  <Energy>  (1006) 
144.60754694426964

>  <compound_id>  (1006) 
8822

>  <target_id>  (1006) 
1

>  <reference_id>  (1006) 
106

>  <inspiration_ids>  (1006) 
[124, 106]

>  <energy_score>  (1006) 
30.911411370525457

>  <distance_score>  (1006) 
2.293714686082155

>  <path>  (1006) 
/opt/xchem-fragalysis-2/maxwin/BulkDock/SCRATCH/511014/C8822-P106/C8822-P106.minimised.mol

>  <scratch_subdir>  (1006) 
/opt/xchem-fragalysis-2/maxwin/BulkDock/SCRATCH/511014/C8822-P106

>  <fragmenstein_runtime>  (1006) 
4.419755458831787

>  <fragmenstein_outcome>  (1006) 
too moved

>  <fragmenstein_mode>  (1006) 
expansion

>  <fragmenstein_error>  (1006) 


$$$$
C8823-P124
     RDKit          3D

 43 46  0  0  0  0  0  0  0  0999 V2000
   15.2145    1.4641   17.3496 O   0  0  0  0  0  0  0  0  0  0  0  0
   15.0812    0.3037   17.2170 C   0  0  0  0  0  0  0  0  0  0  0  0
   14.8865   -0.3650   15.8480 C   0  0  0  0  0  0  0  0  0  0  0  0
   14.0560    0.4539   14.8348 C   0  0  0  0  0  0  0  0  0  0  0  0
   13.1120   -0.3975   13.9694 C   0  0  0  0  0  0  0  0  0  0  0  0
   13.8159   -1.6417   13.4361 C   0  0  0  0  0  0  0  0  0  0  0  0
   14.6747   -2.2543   14.4544 N   0  0  0  0  0  0  0  0  0  0  0  0
   16.0000   -2.6590   14.2507 C   0  0  0  0  0  0  0  0  0  0  0  0
   16.7138   -2.4716   12.9287 C   0  0  0  0  0  0  0  0  0  0  0  0
   18.0035   -2.8296   12.8773 C   0  0  0  0  0  0  0  0  0  0  0  0
   18.5942   -3.3675   14.0029 N   0  0  0  0  0  0  0  0  0  0  0  0
   19.8738   -3.8169   14.1945 C   0  0  0  0  0  0  0  0  0  0  0  0
   19.9104   -4.2452   15.5001 C   0  0  0  0  0  0  0  0  0  0  0  0
   18.6963   -4.0660   16.1100 N   0  0  0  0  0  0  0  0  0  0  0  0
   17.9073   -3.5459   15.1910 C   0  0  0  0  0  0  0  0  0  0  0  0
   16.6101   -3.1764   15.2991 N   0  0  0  0  0  0  0  0  0  0  0  0
   14.3689   -1.8139   15.8206 C   0  0  0  0  0  0  0  0  0  0  0  0
   15.1390   -0.8078   18.2347 N   0  0  0  0  0  0  0  0  0  0  0  0
   16.5469   -1.3495   18.3779 C   0  0  0  0  0  0  0  0  0  0  0  0
   16.5073   -2.6051   19.2131 C   0  0  0  0  0  0  0  0  0  0  0  0
   15.5193   -2.1559   20.2331 C   0  0  0  0  0  0  0  0  0  0  0  0
   15.2812   -0.7603   19.7214 C   0  0  0  0  0  0  0  0  0  0  0  0
   15.9184   -0.3617   15.4612 H   0  0  0  0  0  0  0  0  0  0  0  0
   14.7596    0.9623   14.1606 H   0  0  0  0  0  0  0  0  0  0  0  0
   13.5121    1.2631   15.3252 H   0  0  0  0  0  0  0  0  0  0  0  0
   12.7224    0.2025   13.1394 H   0  0  0  0  0  0  0  0  0  0  0  0
   12.2400   -0.7145   14.5488 H   0  0  0  0  0  0  0  0  0  0  0  0
   14.3698   -1.3529   12.5413 H   0  0  0  0  0  0  0  0  0  0  0  0
   13.0627   -2.3703   13.1270 H   0  0  0  0  0  0  0  0  0  0  0  0
   16.1976   -2.0849   12.0666 H   0  0  0  0  0  0  0  0  0  0  0  0
   18.6070   -2.7426   11.9844 H   0  0  0  0  0  0  0  0  0  0  0  0
   20.6201   -3.7960   13.4146 H   0  0  0  0  0  0  0  0  0  0  0  0
   20.7480   -4.6726   16.0362 H   0  0  0  0  0  0  0  0  0  0  0  0
   13.2963   -1.9097   16.0084 H   0  0  0  0  0  0  0  0  0  0  0  0
   14.8189   -2.4768   16.5622 H   0  0  0  0  0  0  0  0  0  0  0  0
   17.2781   -0.5862   18.6998 H   0  0  0  0  0  0  0  0  0  0  0  0
   16.8997   -1.6053   17.3737 H   0  0  0  0  0  0  0  0  0  0  0  0
   17.4865   -2.8573   19.6290 H   0  0  0  0  0  0  0  0  0  0  0  0
   16.1310   -3.4638   18.6470 H   0  0  0  0  0  0  0  0  0  0  0  0
   14.6107   -2.7667   20.1982 H   0  0  0  0  0  0  0  0  0  0  0  0
   15.9091   -2.1640   21.2545 H   0  0  0  0  0  0  0  0  0  0  0  0
   14.3184   -0.4132   20.1040 H   0  0  0  0  0  0  0  0  0  0  0  0
   15.9796    0.0171   20.0766 H   0  0  0  0  0  0  0  0  0  0  0  0
  1  2  2  0
  2  3  1  0
  3  4  1  0
  4  5  1  0
  5  6  1  0
  6  7  1  0
  7  8  1  0
  8  9  1  0
  9 10  2  0
 10 11  1  0
 11 12  1  0
 12 13  2  0
 13 14  1  0
 14 15  2  0
 15 16  1  0
  7 17  1  0
  2 18  1  0
 18 19  1  0
 19 20  1  0
 20 21  1  0
 21 22  1  0
 17  3  1  0
 22 18  1  0
 16  8  2  0
 15 11  1  0
  3 23  1  0
  4 24  1  0
  4 25  1  0
  5 26  1  0
  5 27  1  0
  6 28  1  0
  6 29  1  0
  9 30  1  0
 10 31  1  0
 12 32  1  0
 13 33  1  0
 17 34  1  0
 17 35  1  0
 19 36  1  0
 19 37  1  0
 20 38  1  0
 20 39  1  0
 21 40  1  0
 21 41  1  0
 22 42  1  0
 22 43  1  0
M  END
>  <Energy>  (1007) 
73.500330132945805

>  <compound_id>  (1007) 
8823

>  <target_id>  (1007) 
1

>  <reference_id>  (1007) 
124

>  <inspiration_ids>  (1007) 
[124, 106]

>  <energy_score>  (1007) 
27.15748372544448

>  <distance_score>  (1007) 
2.8037990309934493

>  <path>  (1007) 
/opt/xchem-fragalysis-2/maxwin/BulkDock/SCRATCH/511014/C8823-P124/C8823-P124.minimised.mol

>  <scratch_subdir>  (1007) 
/opt/xchem-fragalysis-2/maxwin/BulkDock/SCRATCH/511014/C8823-P124

>  <fragmenstein_runtime>  (1007) 
16.64603090286255

>  <fragmenstein_outcome>  (1007) 
too moved

>  <fragmenstein_mode>  (1007) 
expansion

>  <fragmenstein_error>  (1007) 


$$$$
C8823-P106
     RDKit          3D

 43 46  0  0  0  0  0  0  0  0999 V2000
   13.4227    0.7458   16.0142 O   0  0  0  0  0  0  0  0  0  0  0  0
   13.4406   -0.1990   16.7166 C   0  0  0  0  0  0  0  0  0  0  0  0
   12.6704   -1.5016   16.3833 C   0  0  0  0  0  0  0  0  0  0  0  0
   11.5594   -1.2411   15.3638 C   0  0  0  0  0  0  0  0  0  0  0  0
   12.0283   -1.4851   13.9337 C   0  0  0  0  0  0  0  0  0  0  0  0
   13.5333   -1.3846   13.7187 C   0  0  0  0  0  0  0  0  0  0  0  0
   14.2977   -2.1473   14.7074 N   0  0  0  0  0  0  0  0  0  0  0  0
   15.6655   -2.3898   14.5953 C   0  0  0  0  0  0  0  0  0  0  0  0
   16.4423   -1.8514   13.4089 C   0  0  0  0  0  0  0  0  0  0  0  0
   17.7398   -2.1682   13.3295 C   0  0  0  0  0  0  0  0  0  0  0  0
   18.2997   -2.9375   14.3282 N   0  0  0  0  0  0  0  0  0  0  0  0
   19.5874   -3.3803   14.4760 C   0  0  0  0  0  0  0  0  0  0  0  0
   19.5932   -4.0697   15.6644 C   0  0  0  0  0  0  0  0  0  0  0  0
   18.3517   -4.0593   16.2435 N   0  0  0  0  0  0  0  0  0  0  0  0
   17.5731   -3.3828   15.4206 C   0  0  0  0  0  0  0  0  0  0  0  0
   16.2507   -3.0984   15.5355 N   0  0  0  0  0  0  0  0  0  0  0  0
   13.5421   -2.6276   15.8675 C   0  0  0  0  0  0  0  0  0  0  0  0
   14.0646   -0.3922   18.0829 N   0  0  0  0  0  0  0  0  0  0  0  0
   15.4859   -0.8946   17.9709 C   0  0  0  0  0  0  0  0  0  0  0  0
   16.0289   -1.2689   19.3250 C   0  0  0  0  0  0  0  0  0  0  0  0
   15.4404   -0.1502   20.1050 C   0  0  0  0  0  0  0  0  0  0  0  0
   14.7510    0.5795   18.9844 C   0  0  0  0  0  0  0  0  0  0  0  0
   12.1999   -1.8531   17.2947 H   0  0  0  0  0  0  0  0  0  0  0  0
   11.1648   -0.2226   15.4619 H   0  0  0  0  0  0  0  0  0  0  0  0
   10.7100   -1.9063   15.5630 H   0  0  0  0  0  0  0  0  0  0  0  0
   11.5318   -0.7655   13.2779 H   0  0  0  0  0  0  0  0  0  0  0  0
   11.7075   -2.4892   13.6284 H   0  0  0  0  0  0  0  0  0  0  0  0
   13.8455   -0.3349   13.7420 H   0  0  0  0  0  0  0  0  0  0  0  0
   13.7475   -1.7629   12.7123 H   0  0  0  0  0  0  0  0  0  0  0  0
   15.9492   -1.2482   12.6633 H   0  0  0  0  0  0  0  0  0  0  0  0
   18.3804   -1.8470   12.5201 H   0  0  0  0  0  0  0  0  0  0  0  0
   20.3603   -3.1711   13.7520 H   0  0  0  0  0  0  0  0  0  0  0  0
   20.4265   -4.5724   16.1377 H   0  0  0  0  0  0  0  0  0  0  0  0
   14.1615   -3.0404   16.6650 H   0  0  0  0  0  0  0  0  0  0  0  0
   12.9083   -3.4713   15.5665 H   0  0  0  0  0  0  0  0  0  0  0  0
   15.4678   -1.8082   17.3950 H   0  0  0  0  0  0  0  0  0  0  0  0
   16.1295   -0.2278   17.3697 H   0  0  0  0  0  0  0  0  0  0  0  0
   17.1219   -1.2933   19.3419 H   0  0  0  0  0  0  0  0  0  0  0  0
   15.6469   -2.2360   19.6688 H   0  0  0  0  0  0  0  0  0  0  0  0
   16.1839    0.4709   20.6118 H   0  0  0  0  0  0  0  0  0  0  0  0
   14.7262   -0.5197   20.8490 H   0  0  0  0  0  0  0  0  0  0  0  0
   13.9531    1.2032   19.4044 H   0  0  0  0  0  0  0  0  0  0  0  0
   15.3715    1.3113   18.4379 H   0  0  0  0  0  0  0  0  0  0  0  0
  1  2  2  0
  2  3  1  0
  3  4  1  0
  4  5  1  0
  5  6  1  0
  6  7  1  0
  7  8  1  0
  8  9  1  0
  9 10  2  0
 10 11  1  0
 11 12  1  0
 12 13  2  0
 13 14  1  0
 14 15  2  0
 15 16  1  0
  7 17  1  0
  2 18  1  0
 18 19  1  0
 19 20  1  0
 20 21  1  0
 21 22  1  0
 17  3  1  0
 22 18  1  0
 16  8  2  0
 15 11  1  0
  3 23  1  0
  4 24  1  0
  4 25  1  0
  5 26  1  0
  5 27  1  0
  6 28  1  0
  6 29  1  0
  9 30  1  0
 10 31  1  0
 12 32  1  0
 13 33  1  0
 17 34  1  0
 17 35  1  0
 19 36  1  0
 19 37  1  0
 20 38  1  0
 20 39  1  0
 21 40  1  0
 21 41  1  0
 22 42  1  0
 22 43  1  0
M  END
>  <Energy>  (1008) 
65.590412883789028

>  <compound_id>  (1008) 
8823

>  <target_id>  (1008) 
1

>  <reference_id>  (1008) 
106

>  <inspiration_ids>  (1008) 
[124, 106]

>  <energy_score>  (1008) 
19.24756647628405

>  <distance_score>  (1008) 
2.11972461577142

>  <path>  (1008) 
/opt/xchem-fragalysis-2/maxwin/BulkDock/SCRATCH/511014/C8823-P106/C8823-P106.minimised.mol

>  <scratch_subdir>  (1008) 
/opt/xchem-fragalysis-2/maxwin/BulkDock/SCRATCH/511014/C8823-P106

>  <fragmenstein_runtime>  (1008) 
10.347200393676758

>  <fragmenstein_outcome>  (1008) 
too moved

>  <fragmenstein_mode>  (1008) 
expansion

>  <fragmenstein_error>  (1008) 


$$$$
C8824-P124
     RDKit          3D

 50 53  0  0  0  0  0  0  0  0999 V2000
   19.5347   -5.3366   15.3328 C   0  0  0  0  0  0  0  0  0  0  0  0
   19.7716   -4.8233   14.0801 C   0  0  0  0  0  0  0  0  0  0  0  0
   18.9045   -3.7707   13.9576 N   0  0  0  0  0  0  0  0  0  0  0  0
   18.7130   -2.8974   12.9052 C   0  0  0  0  0  0  0  0  0  0  0  0
   17.7794   -1.9442   13.0156 C   0  0  0  0  0  0  0  0  0  0  0  0
   16.9766   -1.9042   14.2998 C   0  0  0  0  0  0  0  0  0  0  0  0
   15.9347   -0.9753   14.4491 N   0  0  0  0  0  0  0  0  0  0  0  0
   15.0419   -0.6569   13.3267 C   0  0  0  0  0  0  0  0  0  0  0  0
   14.0007   -1.7687   13.1671 C   0  0  0  0  0  0  0  0  0  0  0  0
   13.2283   -2.0031   14.4714 C   0  0  0  0  0  0  0  0  0  0  0  0
   12.2657   -3.2002   14.5244 C   0  0  0  0  0  0  0  0  0  0  0  0
   11.4839   -3.6935   13.2795 C   0  0  0  0  0  0  0  0  0  0  0  0
   11.6478   -4.7910   11.8759 C   0  0  0  0  0  0  0  0  0  0  0  0
   10.9922   -5.2486   10.2131 N   0  0  0  0  0  0  0  0  0  0  0  0
   11.2383   -7.0514   10.7800 C   0  0  0  0  0  0  0  0  0  0  0  0
    9.8401   -7.8608   10.3601 C   0  0  0  0  0  0  0  0  0  0  0  0
    8.4601   -7.3037   10.5584 C   0  0  0  0  0  0  0  0  0  0  0  0
    8.9727   -5.5157    9.8484 C   0  0  0  0  0  0  0  0  0  0  0  0
   14.1851   -2.1314   15.6796 C   0  0  0  0  0  0  0  0  0  0  0  0
   15.1910   -0.9875   15.7199 C   0  0  0  0  0  0  0  0  0  0  0  0
   17.2331   -2.7205   15.2993 N   0  0  0  0  0  0  0  0  0  0  0  0
   18.1831   -3.6791   15.1380 C   0  0  0  0  0  0  0  0  0  0  0  0
   18.5551   -4.6270   15.9768 N   0  0  0  0  0  0  0  0  0  0  0  0
   20.0183   -6.1802   15.8085 H   0  0  0  0  0  0  0  0  0  0  0  0
   20.4574   -5.1069   13.2959 H   0  0  0  0  0  0  0  0  0  0  0  0
   19.3391   -3.0166   12.0316 H   0  0  0  0  0  0  0  0  0  0  0  0
   17.6024   -1.2115   12.2444 H   0  0  0  0  0  0  0  0  0  0  0  0
   14.5377    0.2980   13.5234 H   0  0  0  0  0  0  0  0  0  0  0  0
   15.5874   -0.5142   12.3899 H   0  0  0  0  0  0  0  0  0  0  0  0
   13.3104   -1.4730   12.3791 H   0  0  0  0  0  0  0  0  0  0  0  0
   14.5070   -2.6721   12.8216 H   0  0  0  0  0  0  0  0  0  0  0  0
   12.6247   -1.0983   14.6313 H   0  0  0  0  0  0  0  0  0  0  0  0
   11.4678   -2.8304   15.1966 H   0  0  0  0  0  0  0  0  0  0  0  0
   12.6620   -3.9965   15.1563 H   0  0  0  0  0  0  0  0  0  0  0  0
   10.7294   -4.2092   13.8479 H   0  0  0  0  0  0  0  0  0  0  0  0
   11.1586   -2.7349   12.9064 H   0  0  0  0  0  0  0  0  0  0  0  0
   12.6925   -4.7370   11.5685 H   0  0  0  0  0  0  0  0  0  0  0  0
   10.9416   -4.0958   11.5758 H   0  0  0  0  0  0  0  0  0  0  0  0
   11.5227   -6.6917   11.7564 H   0  0  0  0  0  0  0  0  0  0  0  0
   12.0290   -7.8053   11.0574 H   0  0  0  0  0  0  0  0  0  0  0  0
    9.5406   -8.7759   10.6200 H   0  0  0  0  0  0  0  0  0  0  0  0
   10.2235   -7.8952    9.4101 H   0  0  0  0  0  0  0  0  0  0  0  0
    7.4814   -7.4272   10.0629 H   0  0  0  0  0  0  0  0  0  0  0  0
    8.1590   -7.3905   11.6176 H   0  0  0  0  0  0  0  0  0  0  0  0
    8.0767   -4.7983    9.8361 H   0  0  0  0  0  0  0  0  0  0  0  0
    9.2981   -5.9868    9.0840 H   0  0  0  0  0  0  0  0  0  0  0  0
   13.6235   -2.1736   16.6163 H   0  0  0  0  0  0  0  0  0  0  0  0
   14.7172   -3.0881   15.6210 H   0  0  0  0  0  0  0  0  0  0  0  0
   14.6723   -0.0298   15.8512 H   0  0  0  0  0  0  0  0  0  0  0  0
   15.8641   -1.0845   16.5796 H   0  0  0  0  0  0  0  0  0  0  0  0
  1  2  2  0
  2  3  1  0
  3  4  1  0
  4  5  2  0
  5  6  1  0
  6  7  1  0
  7  8  1  0
  8  9  1  0
  9 10  1  0
 10 11  1  0
 11 12  1  0
 12 13  1  0
 13 14  1  0
 14 15  1  0
 15 16  1  0
 16 17  1  0
 17 18  1  0
 10 19  1  0
 19 20  1  0
  6 21  2  0
 21 22  1  0
 22 23  2  0
 23  1  1  0
 22  3  1  0
 20  7  1  0
 18 14  1  0
  1 24  1  0
  2 25  1  0
  4 26  1  0
  5 27  1  0
  8 28  1  0
  8 29  1  0
  9 30  1  0
  9 31  1  0
 10 32  1  0
 11 33  1  0
 11 34  1  0
 12 35  1  0
 12 36  1  0
 13 37  1  0
 13 38  1  0
 15 39  1  0
 15 40  1  0
 16 41  1  0
 16 42  1  0
 17 43  1  0
 17 44  1  0
 18 45  1  0
 18 46  1  0
 19 47  1  0
 19 48  1  0
 20 49  1  0
 20 50  1  0
M  END
>  <Energy>  (1009) 
460.86940364169209

>  <compound_id>  (1009) 
8824

>  <target_id>  (1009) 
1

>  <reference_id>  (1009) 
124

>  <inspiration_ids>  (1009) 
[124, 106]

>  <energy_score>  (1009) 
414.6349954386406

>  <distance_score>  (1009) 
2.5907630142712037

>  <path>  (1009) 
/opt/xchem-fragalysis-2/maxwin/BulkDock/SCRATCH/511014/C8824-P124/C8824-P124.minimised.mol

>  <scratch_subdir>  (1009) 
/opt/xchem-fragalysis-2/maxwin/BulkDock/SCRATCH/511014/C8824-P124

>  <fragmenstein_runtime>  (1009) 
20.02469038963318

>  <fragmenstein_outcome>  (1009) 
too moved

>  <fragmenstein_mode>  (1009) 
expansion

>  <fragmenstein_error>  (1009) 


$$$$
C8824-P106
     RDKit          3D

 50 53  0  0  0  0  0  0  0  0999 V2000
   18.9248   -4.7028   15.5327 C   0  0  0  0  0  0  0  0  0  0  0  0
   19.2222   -3.3914   15.8127 C   0  0  0  0  0  0  0  0  0  0  0  0
   18.0131   -2.8007   16.0635 N   0  0  0  0  0  0  0  0  0  0  0  0
   17.7265   -1.5132   16.4698 C   0  0  0  0  0  0  0  0  0  0  0  0
   16.4502   -1.1699   16.6791 C   0  0  0  0  0  0  0  0  0  0  0  0
   15.3891   -2.2189   16.3994 C   0  0  0  0  0  0  0  0  0  0  0  0
   14.0343   -1.8893   16.4899 N   0  0  0  0  0  0  0  0  0  0  0  0
   13.5578   -0.5089   16.4210 C   0  0  0  0  0  0  0  0  0  0  0  0
   12.2806   -0.3671   15.6014 C   0  0  0  0  0  0  0  0  0  0  0  0
   12.1837   -1.4435   14.5338 C   0  0  0  0  0  0  0  0  0  0  0  0
   13.3652   -1.4646   13.5292 C   0  0  0  0  0  0  0  0  0  0  0  0
   13.7091   -0.1061   12.9144 C   0  0  0  0  0  0  0  0  0  0  0  0
   14.6307   -0.1812   11.6834 C   0  0  0  0  0  0  0  0  0  0  0  0
   16.0311   -0.5481   11.8125 N   0  0  0  0  0  0  0  0  0  0  0  0
   16.7854    0.0747   12.8851 C   0  0  0  0  0  0  0  0  0  0  0  0
   18.1333   -0.6184   12.7548 C   0  0  0  0  0  0  0  0  0  0  0  0
   17.8165   -1.9974   12.1807 C   0  0  0  0  0  0  0  0  0  0  0  0
   16.3235   -1.9751   11.8786 C   0  0  0  0  0  0  0  0  0  0  0  0
   12.0439   -2.7789   15.2710 C   0  0  0  0  0  0  0  0  0  0  0  0
   13.0020   -2.9355   16.4595 C   0  0  0  0  0  0  0  0  0  0  0  0
   15.7147   -3.4464   16.0668 N   0  0  0  0  0  0  0  0  0  0  0  0
   17.0282   -3.7608   15.9031 C   0  0  0  0  0  0  0  0  0  0  0  0
   17.5747   -4.9221   15.6013 N   0  0  0  0  0  0  0  0  0  0  0  0
   19.6103   -5.5045   15.2901 H   0  0  0  0  0  0  0  0  0  0  0  0
   20.1564   -2.8529   15.8662 H   0  0  0  0  0  0  0  0  0  0  0  0
   18.5575   -0.8397   16.6292 H   0  0  0  0  0  0  0  0  0  0  0  0
   16.1679   -0.1942   17.0428 H   0  0  0  0  0  0  0  0  0  0  0  0
   13.4025   -0.1209   17.4335 H   0  0  0  0  0  0  0  0  0  0  0  0
   14.3095    0.1347   15.9529 H   0  0  0  0  0  0  0  0  0  0  0  0
   11.4120   -0.4462   16.2669 H   0  0  0  0  0  0  0  0  0  0  0  0
   12.2242    0.6379   15.1678 H   0  0  0  0  0  0  0  0  0  0  0  0
   11.2735   -1.2600   13.9616 H   0  0  0  0  0  0  0  0  0  0  0  0
   13.1161   -2.1730   12.7342 H   0  0  0  0  0  0  0  0  0  0  0  0
   14.2624   -1.8641   13.9996 H   0  0  0  0  0  0  0  0  0  0  0  0
   14.1520    0.5567   13.6644 H   0  0  0  0  0  0  0  0  0  0  0  0
   12.7781    0.3831   12.6015 H   0  0  0  0  0  0  0  0  0  0  0  0
   14.6131    0.8152   11.2224 H   0  0  0  0  0  0  0  0  0  0  0  0
   14.1770   -0.8441   10.9426 H   0  0  0  0  0  0  0  0  0  0  0  0
   16.3525   -0.1339   13.8687 H   0  0  0  0  0  0  0  0  0  0  0  0
   16.8789    1.1578   12.7611 H   0  0  0  0  0  0  0  0  0  0  0  0
   18.7790   -0.0711   12.0571 H   0  0  0  0  0  0  0  0  0  0  0  0
   18.6591   -0.6810   13.7114 H   0  0  0  0  0  0  0  0  0  0  0  0
   18.4008   -2.1650   11.2686 H   0  0  0  0  0  0  0  0  0  0  0  0
   18.0641   -2.7955   12.8866 H   0  0  0  0  0  0  0  0  0  0  0  0
   15.7854   -2.4802   12.6834 H   0  0  0  0  0  0  0  0  0  0  0  0
   16.1010   -2.4872   10.9373 H   0  0  0  0  0  0  0  0  0  0  0  0
   11.0180   -2.8792   15.6442 H   0  0  0  0  0  0  0  0  0  0  0  0
   12.1592   -3.5897   14.5573 H   0  0  0  0  0  0  0  0  0  0  0  0
   12.4355   -2.8587   17.3909 H   0  0  0  0  0  0  0  0  0  0  0  0
   13.4127   -3.9509   16.4659 H   0  0  0  0  0  0  0  0  0  0  0  0
  1  2  2  0
  2  3  1  0
  3  4  1  0
  4  5  2  0
  5  6  1  0
  6  7  1  0
  7  8  1  0
  8  9  1  0
  9 10  1  0
 10 11  1  0
 11 12  1  0
 12 13  1  0
 13 14  1  0
 14 15  1  0
 15 16  1  0
 16 17  1  0
 17 18  1  0
 10 19  1  0
 19 20  1  0
  6 21  2  0
 21 22  1  0
 22 23  2  0
 23  1  1  0
 22  3  1  0
 20  7  1  0
 18 14  1  0
  1 24  1  0
  2 25  1  0
  4 26  1  0
  5 27  1  0
  8 28  1  0
  8 29  1  0
  9 30  1  0
  9 31  1  0
 10 32  1  0
 11 33  1  0
 11 34  1  0
 12 35  1  0
 12 36  1  0
 13 37  1  0
 13 38  1  0
 15 39  1  0
 15 40  1  0
 16 41  1  0
 16 42  1  0
 17 43  1  0
 17 44  1  0
 18 45  1  0
 18 46  1  0
 19 47  1  0
 19 48  1  0
 20 49  1  0
 20 50  1  0
M  END
>  <Energy>  (1010) 
21.025894580351984

>  <compound_id>  (1010) 
8824

>  <target_id>  (1010) 
1

>  <reference_id>  (1010) 
106

>  <inspiration_ids>  (1010) 
[124, 106]

>  <energy_score>  (1010) 
-38.703570385117274

>  <distance_score>  (1010) 
1.568901532145665

>  <path>  (1010) 
/opt/xchem-fragalysis-2/maxwin/BulkDock/SCRATCH/511014/C8824-P106/C8824-P106.minimised.mol

>  <scratch_subdir>  (1010) 
/opt/xchem-fragalysis-2/maxwin/BulkDock/SCRATCH/511014/C8824-P106

>  <fragmenstein_runtime>  (1010) 
15.407428741455078

>  <fragmenstein_outcome>  (1010) 
too moved

>  <fragmenstein_mode>  (1010) 
expansion

>  <fragmenstein_error>  (1010) 


$$$$
C8825-P124
     RDKit          3D

 41 44  0  0  0  0  0  0  0  0999 V2000
   14.7838    0.2092   17.6569 O   0  0  0  0  0  0  0  0  0  0  0  0
   15.5327    0.6745   16.8853 C   0  0  0  0  0  0  0  0  0  0  0  0
   15.6130    2.1758   16.8385 C   0  0  0  0  0  0  0  0  0  0  0  0
   14.3791    2.7448   16.1943 C   0  0  0  0  0  0  0  0  0  0  0  0
   14.3055    4.0753   16.1816 C   0  0  0  0  0  0  0  0  0  0  0  0
   15.3605    4.8022   16.7119 N   0  0  0  0  0  0  0  0  0  0  0  0
   15.5308    6.1575   16.8019 C   0  0  0  0  0  0  0  0  0  0  0  0
   16.7588    6.3265   17.3938 C   0  0  0  0  0  0  0  0  0  0  0  0
   17.3408    5.1176   17.6704 N   0  0  0  0  0  0  0  0  0  0  0  0
   16.4921    4.1949   17.2604 C   0  0  0  0  0  0  0  0  0  0  0  0
   16.6140    2.8351   17.3295 N   0  0  0  0  0  0  0  0  0  0  0  0
   16.3795    0.0176   15.8382 N   0  0  0  0  0  0  0  0  0  0  0  0
   15.6360   -0.0808   14.5071 C   0  0  0  0  0  0  0  0  0  0  0  0
   15.5878   -1.3203   13.6591 C   0  0  0  0  0  0  0  0  0  0  0  0
   15.4990   -2.2314   14.8098 C   0  0  0  0  0  0  0  0  0  0  0  0
   14.1038   -2.2597   15.4857 C   0  0  0  0  0  0  0  0  0  0  0  0
   13.8278   -3.5088   16.3077 C   0  0  0  0  0  0  0  0  0  0  0  0
   12.3165   -3.5823   16.3717 C   0  0  0  0  0  0  0  0  0  0  0  0
   11.7463   -2.8662   15.1610 C   0  0  0  0  0  0  0  0  0  0  0  0
   12.9061   -2.1272   14.5250 C   0  0  0  0  0  0  0  0  0  0  0  0
   16.6017   -1.4384   15.5289 C   0  0  0  0  0  0  0  0  0  0  0  0
   13.6157    2.1014   15.7827 H   0  0  0  0  0  0  0  0  0  0  0  0
   13.4728    4.6245   15.7618 H   0  0  0  0  0  0  0  0  0  0  0  0
   14.7931    6.8616   16.4470 H   0  0  0  0  0  0  0  0  0  0  0  0
   17.2591    7.2553   17.6365 H   0  0  0  0  0  0  0  0  0  0  0  0
   14.6100    0.2779   14.6736 H   0  0  0  0  0  0  0  0  0  0  0  0
   16.0846    0.7206   13.9010 H   0  0  0  0  0  0  0  0  0  0  0  0
   16.5107   -1.4558   13.0793 H   0  0  0  0  0  0  0  0  0  0  0  0
   14.7632   -1.3233   12.9445 H   0  0  0  0  0  0  0  0  0  0  0  0
   15.8461   -3.2379   14.5620 H   0  0  0  0  0  0  0  0  0  0  0  0
   14.0301   -1.4290   16.1804 H   0  0  0  0  0  0  0  0  0  0  0  0
   14.2520   -4.4099   15.8710 H   0  0  0  0  0  0  0  0  0  0  0  0
   14.2636   -3.4277   17.3103 H   0  0  0  0  0  0  0  0  0  0  0  0
   11.9491   -4.6051   16.4757 H   0  0  0  0  0  0  0  0  0  0  0  0
   12.0304   -3.0408   17.2622 H   0  0  0  0  0  0  0  0  0  0  0  0
   11.3063   -3.5704   14.4495 H   0  0  0  0  0  0  0  0  0  0  0  0
   10.9451   -2.1815   15.4546 H   0  0  0  0  0  0  0  0  0  0  0  0
   12.6489   -1.0760   14.3562 H   0  0  0  0  0  0  0  0  0  0  0  0
   13.1030   -2.5582   13.5403 H   0  0  0  0  0  0  0  0  0  0  0  0
   17.5857   -1.5243   15.0363 H   0  0  0  0  0  0  0  0  0  0  0  0
   16.7414   -1.9035   16.5149 H   0  0  0  0  0  0  0  0  0  0  0  0
  1  2  2  0
  2  3  1  0
  3  4  1  0
  4  5  2  0
  5  6  1  0
  6  7  1  0
  7  8  2  0
  8  9  1  0
  9 10  2  0
 10 11  1  0
  2 12  1  0
 12 13  1  0
 13 14  1  0
 14 15  1  0
 15 16  1  0
 16 17  1  0
 17 18  1  0
 18 19  1  0
 19 20  1  0
 15 21  1  0
 11  3  2  0
 21 12  1  0
 10  6  1  0
 20 16  1  0
  4 22  1  0
  5 23  1  0
  7 24  1  0
  8 25  1  0
 13 26  1  0
 13 27  1  0
 14 28  1  0
 14 29  1  0
 15 30  1  0
 16 31  1  0
 17 32  1  0
 17 33  1  0
 18 34  1  0
 18 35  1  0
 19 36  1  0
 19 37  1  0
 20 38  1  0
 20 39  1  0
 21 40  1  0
 21 41  1  0
M  END
>  <Energy>  (1011) 
168.04278323674953

>  <compound_id>  (1011) 
8825

>  <target_id>  (1011) 
1

>  <reference_id>  (1011) 
124

>  <inspiration_ids>  (1011) 
[124, 106]

>  <energy_score>  (1011) 
-53.923021685678634

>  <distance_score>  (1011) 
2.151719968671848

>  <path>  (1011) 
/opt/xchem-fragalysis-2/maxwin/BulkDock/SCRATCH/511014/C8825-P124/C8825-P124.minimised.mol

>  <scratch_subdir>  (1011) 
/opt/xchem-fragalysis-2/maxwin/BulkDock/SCRATCH/511014/C8825-P124

>  <fragmenstein_runtime>  (1011) 
1.9078567028045654

>  <fragmenstein_outcome>  (1011) 
too moved

>  <fragmenstein_mode>  (1011) 
expansion

>  <fragmenstein_error>  (1011) 


$$$$
C8825-P106
     RDKit          3D

 41 44  0  0  0  0  0  0  0  0999 V2000
   13.3519    0.7053   16.1110 O   0  0  0  0  0  0  0  0  0  0  0  0
   14.2802    0.9408   16.7932 C   0  0  0  0  0  0  0  0  0  0  0  0
   14.5795    2.3929   17.0073 C   0  0  0  0  0  0  0  0  0  0  0  0
   13.3553    3.1585   17.3740 C   0  0  0  0  0  0  0  0  0  0  0  0
   13.5234    4.4786   17.4446 C   0  0  0  0  0  0  0  0  0  0  0  0
   14.7837    5.0106   17.2218 N   0  0  0  0  0  0  0  0  0  0  0  0
   15.2057    6.3124   17.2521 C   0  0  0  0  0  0  0  0  0  0  0  0
   16.5482    6.2611   16.9644 C   0  0  0  0  0  0  0  0  0  0  0  0
   16.9583    4.9694   16.7584 N   0  0  0  0  0  0  0  0  0  0  0  0
   15.8876    4.2156   16.9127 C   0  0  0  0  0  0  0  0  0  0  0  0
   15.7720    2.8619   16.7970 N   0  0  0  0  0  0  0  0  0  0  0  0
   15.1742    0.0145   17.5796 N   0  0  0  0  0  0  0  0  0  0  0  0
   16.3497   -0.4429   16.7535 C   0  0  0  0  0  0  0  0  0  0  0  0
   15.9624   -1.4897   15.7241 C   0  0  0  0  0  0  0  0  0  0  0  0
   14.9218   -2.2435   16.4981 C   0  0  0  0  0  0  0  0  0  0  0  0
   13.4788   -2.1489   15.9867 C   0  0  0  0  0  0  0  0  0  0  0  0
   12.6210   -3.3815   16.2297 C   0  0  0  0  0  0  0  0  0  0  0  0
   11.3925   -3.0573   15.3932 C   0  0  0  0  0  0  0  0  0  0  0  0
   11.8958   -2.3016   14.1761 C   0  0  0  0  0  0  0  0  0  0  0  0
   13.3100   -1.8698   14.4938 C   0  0  0  0  0  0  0  0  0  0  0  0
   15.0876   -1.4744   17.8102 C   0  0  0  0  0  0  0  0  0  0  0  0
   12.4110    2.6564   17.5224 H   0  0  0  0  0  0  0  0  0  0  0  0
   12.7199    5.1630   17.6834 H   0  0  0  0  0  0  0  0  0  0  0  0
   14.5394    7.1340   17.4688 H   0  0  0  0  0  0  0  0  0  0  0  0
   17.2450    7.0862   16.8931 H   0  0  0  0  0  0  0  0  0  0  0  0
   16.7262    0.4337   16.2098 H   0  0  0  0  0  0  0  0  0  0  0  0
   17.2003   -0.7372   17.3924 H   0  0  0  0  0  0  0  0  0  0  0  0
   16.8237   -2.1127   15.4618 H   0  0  0  0  0  0  0  0  0  0  0  0
   15.6110   -1.0121   14.8082 H   0  0  0  0  0  0  0  0  0  0  0  0
   15.2069   -3.2930   16.6324 H   0  0  0  0  0  0  0  0  0  0  0  0
   12.9447   -1.3757   16.5444 H   0  0  0  0  0  0  0  0  0  0  0  0
   13.1193   -4.2914   15.8982 H   0  0  0  0  0  0  0  0  0  0  0  0
   12.3811   -3.5132   17.2868 H   0  0  0  0  0  0  0  0  0  0  0  0
   10.8189   -3.9385   15.1163 H   0  0  0  0  0  0  0  0  0  0  0  0
   10.7341   -2.3850   15.9496 H   0  0  0  0  0  0  0  0  0  0  0  0
   11.8724   -2.9305   13.2841 H   0  0  0  0  0  0  0  0  0  0  0  0
   11.2805   -1.4163   13.9990 H   0  0  0  0  0  0  0  0  0  0  0  0
   13.4504   -0.8162   14.2367 H   0  0  0  0  0  0  0  0  0  0  0  0
   14.0270   -2.4236   13.8846 H   0  0  0  0  0  0  0  0  0  0  0  0
   15.9008   -1.8459   18.4577 H   0  0  0  0  0  0  0  0  0  0  0  0
   14.1880   -1.6138   18.4223 H   0  0  0  0  0  0  0  0  0  0  0  0
  1  2  2  0
  2  3  1  0
  3  4  1  0
  4  5  2  0
  5  6  1  0
  6  7  1  0
  7  8  2  0
  8  9  1  0
  9 10  2  0
 10 11  1  0
  2 12  1  0
 12 13  1  0
 13 14  1  0
 14 15  1  0
 15 16  1  0
 16 17  1  0
 17 18  1  0
 18 19  1  0
 19 20  1  0
 15 21  1  0
 11  3  2  0
 21 12  1  0
 10  6  1  0
 20 16  1  0
  4 22  1  0
  5 23  1  0
  7 24  1  0
  8 25  1  0
 13 26  1  0
 13 27  1  0
 14 28  1  0
 14 29  1  0
 15 30  1  0
 16 31  1  0
 17 32  1  0
 17 33  1  0
 18 34  1  0
 18 35  1  0
 19 36  1  0
 19 37  1  0
 20 38  1  0
 20 39  1  0
 21 40  1  0
 21 41  1  0
M  END
>  <Energy>  (1012) 
154.68893545143607

>  <compound_id>  (1012) 
8825

>  <target_id>  (1012) 
1

>  <reference_id>  (1012) 
106

>  <inspiration_ids>  (1012) 
[124, 106]

>  <energy_score>  (1012) 
-67.276869470993

>  <distance_score>  (1012) 
2.024181090602075

>  <path>  (1012) 
/opt/xchem-fragalysis-2/maxwin/BulkDock/SCRATCH/511014/C8825-P106/C8825-P106.minimised.mol

>  <scratch_subdir>  (1012) 
/opt/xchem-fragalysis-2/maxwin/BulkDock/SCRATCH/511014/C8825-P106

>  <fragmenstein_runtime>  (1012) 
1.9273223876953125

>  <fragmenstein_outcome>  (1012) 
too moved

>  <fragmenstein_mode>  (1012) 
expansion

>  <fragmenstein_error>  (1012) 


$$$$
C8826-P124
     RDKit          3D

 33 35  0  0  0  0  0  0  0  0999 V2000
   13.6871    1.9809   13.8707 C   0  0  0  0  0  0  0  0  0  0  0  0
   13.0505    0.6447   13.4733 C   0  0  0  0  0  0  0  0  0  0  0  0
   13.4377   -0.4748   14.4157 C   0  0  0  0  0  0  0  0  0  0  0  0
   13.6938    0.1402   15.6685 O   0  0  0  0  0  0  0  0  0  0  0  0
   12.4401   -1.6109   14.5968 C   0  0  0  0  0  0  0  0  0  0  0  0
   13.2712   -2.5999   15.4174 C   0  0  0  0  0  0  0  0  0  0  0  0
   14.7018   -2.4083   14.9710 N   0  0  0  0  0  0  0  0  0  0  0  0
   15.5918   -2.2005   16.0229 C   0  0  0  0  0  0  0  0  0  0  0  0
   16.1082   -3.3630   16.8061 C   0  0  0  0  0  0  0  0  0  0  0  0
   16.5321   -3.0666   18.0418 C   0  0  0  0  0  0  0  0  0  0  0  0
   16.5031   -1.7443   18.4735 N   0  0  0  0  0  0  0  0  0  0  0  0
   16.6429   -1.1956   19.7188 C   0  0  0  0  0  0  0  0  0  0  0  0
   16.4117    0.1494   19.5433 C   0  0  0  0  0  0  0  0  0  0  0  0
   16.1920    0.4473   18.2298 N   0  0  0  0  0  0  0  0  0  0  0  0
   16.2318   -0.7067   17.6079 C   0  0  0  0  0  0  0  0  0  0  0  0
   15.8621   -0.9576   16.3378 N   0  0  0  0  0  0  0  0  0  0  0  0
   14.6469   -1.3081   13.9668 C   0  0  0  0  0  0  0  0  0  0  0  0
   14.7767    1.8949   13.9378 H   0  0  0  0  0  0  0  0  0  0  0  0
   13.4636    2.7301   13.1034 H   0  0  0  0  0  0  0  0  0  0  0  0
   13.3040    2.3714   14.8176 H   0  0  0  0  0  0  0  0  0  0  0  0
   13.3509    0.3945   12.4485 H   0  0  0  0  0  0  0  0  0  0  0  0
   11.9637    0.7687   13.4292 H   0  0  0  0  0  0  0  0  0  0  0  0
   14.6574    0.1140   15.8490 H   0  0  0  0  0  0  0  0  0  0  0  0
   11.5194   -1.3581   15.1176 H   0  0  0  0  0  0  0  0  0  0  0  0
   12.1660   -2.0524   13.6310 H   0  0  0  0  0  0  0  0  0  0  0  0
   13.1798   -2.3962   16.4891 H   0  0  0  0  0  0  0  0  0  0  0  0
   12.9222   -3.6224   15.2830 H   0  0  0  0  0  0  0  0  0  0  0  0
   16.0623   -4.3508   16.3754 H   0  0  0  0  0  0  0  0  0  0  0  0
   16.8571   -3.8154   18.7516 H   0  0  0  0  0  0  0  0  0  0  0  0
   16.8525   -1.7893   20.5961 H   0  0  0  0  0  0  0  0  0  0  0  0
   16.4114    0.9225   20.3011 H   0  0  0  0  0  0  0  0  0  0  0  0
   14.4875   -1.7484   12.9742 H   0  0  0  0  0  0  0  0  0  0  0  0
   15.5779   -0.7313   13.9211 H   0  0  0  0  0  0  0  0  0  0  0  0
  1  2  1  0
  2  3  1  0
  3  4  1  0
  3  5  1  0
  5  6  1  0
  6  7  1  0
  7  8  1  0
  8  9  1  0
  9 10  2  0
 10 11  1  0
 11 12  1  0
 12 13  2  0
 13 14  1  0
 14 15  2  0
 15 16  1  0
  7 17  1  0
 17  3  1  0
 16  8  2  0
 15 11  1  0
  1 18  1  0
  1 19  1  0
  1 20  1  0
  2 21  1  0
  2 22  1  0
  4 23  1  0
  5 24  1  0
  5 25  1  0
  6 26  1  0
  6 27  1  0
  9 28  1  0
 10 29  1  0
 12 30  1  0
 13 31  1  0
 17 32  1  0
 17 33  1  0
M  END
>  <Energy>  (1013) 
44.429154858008239

>  <compound_id>  (1013) 
8826

>  <target_id>  (1013) 
1

>  <reference_id>  (1013) 
124

>  <inspiration_ids>  (1013) 
[124, 106]

>  <energy_score>  (1013) 
-12.120430766669841

>  <distance_score>  (1013) 
2.6114366900660886

>  <path>  (1013) 
/opt/xchem-fragalysis-2/maxwin/BulkDock/SCRATCH/511014/C8826-P124/C8826-P124.minimised.mol

>  <scratch_subdir>  (1013) 
/opt/xchem-fragalysis-2/maxwin/BulkDock/SCRATCH/511014/C8826-P124

>  <fragmenstein_runtime>  (1013) 
4.439797878265381

>  <fragmenstein_outcome>  (1013) 
too moved

>  <fragmenstein_mode>  (1013) 
expansion

>  <fragmenstein_error>  (1013) 


$$$$
C8826-P106
     RDKit          3D

 33 35  0  0  0  0  0  0  0  0999 V2000
   12.9809    0.9810   16.2165 C   0  0  0  0  0  0  0  0  0  0  0  0
   11.7060    0.4298   15.5983 C   0  0  0  0  0  0  0  0  0  0  0  0
   11.5926   -1.0781   15.2616 C   0  0  0  0  0  0  0  0  0  0  0  0
   10.1860   -1.3982   15.2973 O   0  0  0  0  0  0  0  0  0  0  0  0
   12.1525   -1.4179   13.8886 C   0  0  0  0  0  0  0  0  0  0  0  0
   13.6206   -1.6810   14.1243 C   0  0  0  0  0  0  0  0  0  0  0  0
   13.7050   -2.2626   15.4684 N   0  0  0  0  0  0  0  0  0  0  0  0
   14.8461   -1.9809   16.2070 C   0  0  0  0  0  0  0  0  0  0  0  0
   16.2214   -2.2649   15.6491 C   0  0  0  0  0  0  0  0  0  0  0  0
   17.2462   -1.7080   16.3112 C   0  0  0  0  0  0  0  0  0  0  0  0
   16.9789   -0.9439   17.4442 N   0  0  0  0  0  0  0  0  0  0  0  0
   17.8011   -0.2027   18.2472 C   0  0  0  0  0  0  0  0  0  0  0  0
   16.9658    0.4247   19.1401 C   0  0  0  0  0  0  0  0  0  0  0  0
   15.6730    0.0649   18.9353 N   0  0  0  0  0  0  0  0  0  0  0  0
   15.7042   -0.7971   17.9485 C   0  0  0  0  0  0  0  0  0  0  0  0
   14.6592   -1.3963   17.3587 N   0  0  0  0  0  0  0  0  0  0  0  0
   12.3794   -2.0825   16.1206 C   0  0  0  0  0  0  0  0  0  0  0  0
   13.1280    0.5925   17.2244 H   0  0  0  0  0  0  0  0  0  0  0  0
   12.8975    2.0696   16.3105 H   0  0  0  0  0  0  0  0  0  0  0  0
   13.8619    0.7807   15.6061 H   0  0  0  0  0  0  0  0  0  0  0  0
   11.4988    1.0034   14.6843 H   0  0  0  0  0  0  0  0  0  0  0  0
   10.8714    0.6987   16.2560 H   0  0  0  0  0  0  0  0  0  0  0  0
    9.8555   -1.4187   14.3674 H   0  0  0  0  0  0  0  0  0  0  0  0
   11.6923   -2.3322   13.4960 H   0  0  0  0  0  0  0  0  0  0  0  0
   11.9900   -0.6200   13.1616 H   0  0  0  0  0  0  0  0  0  0  0  0
   14.0338   -2.3462   13.3619 H   0  0  0  0  0  0  0  0  0  0  0  0
   14.1823   -0.7419   14.0642 H   0  0  0  0  0  0  0  0  0  0  0  0
   16.3179   -2.8702   14.7592 H   0  0  0  0  0  0  0  0  0  0  0  0
   18.2785   -1.8071   16.0056 H   0  0  0  0  0  0  0  0  0  0  0  0
   18.8698   -0.1605   18.1007 H   0  0  0  0  0  0  0  0  0  0  0  0
   17.2381    1.1194   19.9242 H   0  0  0  0  0  0  0  0  0  0  0  0
   12.4175   -1.7666   17.1609 H   0  0  0  0  0  0  0  0  0  0  0  0
   11.8771   -3.0587   16.1184 H   0  0  0  0  0  0  0  0  0  0  0  0
  1  2  1  0
  2  3  1  0
  3  4  1  0
  3  5  1  0
  5  6  1  0
  6  7  1  0
  7  8  1  0
  8  9  1  0
  9 10  2  0
 10 11  1  0
 11 12  1  0
 12 13  2  0
 13 14  1  0
 14 15  2  0
 15 16  1  0
  7 17  1  0
 17  3  1  0
 16  8  2  0
 15 11  1  0
  1 18  1  0
  1 19  1  0
  1 20  1  0
  2 21  1  0
  2 22  1  0
  4 23  1  0
  5 24  1  0
  5 25  1  0
  6 26  1  0
  6 27  1  0
  9 28  1  0
 10 29  1  0
 12 30  1  0
 13 31  1  0
 17 32  1  0
 17 33  1  0
M  END
>  <Energy>  (1014) 
40.39583289172198

>  <compound_id>  (1014) 
8826

>  <target_id>  (1014) 
1

>  <reference_id>  (1014) 
106

>  <inspiration_ids>  (1014) 
[124, 106]

>  <energy_score>  (1014) 
-16.15375273295672

>  <distance_score>  (1014) 
2.075696062631133

>  <path>  (1014) 
/opt/xchem-fragalysis-2/maxwin/BulkDock/SCRATCH/511014/C8826-P106/C8826-P106.minimised.mol

>  <scratch_subdir>  (1014) 
/opt/xchem-fragalysis-2/maxwin/BulkDock/SCRATCH/511014/C8826-P106

>  <fragmenstein_runtime>  (1014) 
4.404595375061035

>  <fragmenstein_outcome>  (1014) 
too moved

>  <fragmenstein_mode>  (1014) 
expansion

>  <fragmenstein_error>  (1014) 


$$$$
C8827-P124
     RDKit          3D

 38 40  0  0  0  0  0  0  0  0999 V2000
   14.6181   -1.1498   19.1258 O   0  0  0  0  0  0  0  0  0  0  0  0
   15.5464   -0.2125   18.6159 C   0  0  0  0  0  0  0  0  0  0  0  0
   15.2629    1.2291   18.9685 C   0  0  0  0  0  0  0  0  0  0  0  0
   15.9086    1.9953   17.8227 C   0  0  0  0  0  0  0  0  0  0  0  0
   15.6872    1.1767   16.6298 N   0  0  0  0  0  0  0  0  0  0  0  0
   16.7847    1.2988   15.6436 C   0  0  0  0  0  0  0  0  0  0  0  0
   16.4891    0.6428   14.2795 C   0  0  0  0  0  0  0  0  0  0  0  0
   17.3959   -0.5310   13.8399 C   0  0  0  0  0  0  0  0  0  0  0  0
   17.3115   -1.7749   14.6136 N   0  0  0  0  0  0  0  0  0  0  0  0
   16.1039   -2.3470   14.9516 C   0  0  0  0  0  0  0  0  0  0  0  0
   16.0453   -3.2752   16.1370 C   0  0  0  0  0  0  0  0  0  0  0  0
   14.8200   -3.5417   16.6095 C   0  0  0  0  0  0  0  0  0  0  0  0
   13.7076   -3.0689   15.9364 N   0  0  0  0  0  0  0  0  0  0  0  0
   12.3753   -3.2922   16.1504 C   0  0  0  0  0  0  0  0  0  0  0  0
   11.7217   -2.6475   15.1299 C   0  0  0  0  0  0  0  0  0  0  0  0
   12.6189   -2.0274   14.3141 N   0  0  0  0  0  0  0  0  0  0  0  0
   13.8139   -2.3036   14.7916 C   0  0  0  0  0  0  0  0  0  0  0  0
   15.0383   -1.9713   14.2993 N   0  0  0  0  0  0  0  0  0  0  0  0
   15.5466   -0.2007   17.0999 C   0  0  0  0  0  0  0  0  0  0  0  0
   14.6096   -1.0577   20.0966 H   0  0  0  0  0  0  0  0  0  0  0  0
   16.5429   -0.4884   18.9838 H   0  0  0  0  0  0  0  0  0  0  0  0
   14.1988    1.4458   19.0393 H   0  0  0  0  0  0  0  0  0  0  0  0
   15.7013    1.4979   19.9354 H   0  0  0  0  0  0  0  0  0  0  0  0
   16.9793    2.1116   18.0366 H   0  0  0  0  0  0  0  0  0  0  0  0
   15.4747    2.9936   17.7093 H   0  0  0  0  0  0  0  0  0  0  0  0
   17.7325    0.9276   16.0547 H   0  0  0  0  0  0  0  0  0  0  0  0
   16.9321    2.3708   15.4556 H   0  0  0  0  0  0  0  0  0  0  0  0
   15.4281    0.3889   14.2012 H   0  0  0  0  0  0  0  0  0  0  0  0
   16.6281    1.4258   13.5199 H   0  0  0  0  0  0  0  0  0  0  0  0
   18.4396   -0.1956   13.8503 H   0  0  0  0  0  0  0  0  0  0  0  0
   17.1644   -0.7707   12.7948 H   0  0  0  0  0  0  0  0  0  0  0  0
   18.0875   -1.9280   15.2440 H   0  0  0  0  0  0  0  0  0  0  0  0
   16.9591   -3.6153   16.5998 H   0  0  0  0  0  0  0  0  0  0  0  0
   14.6442   -4.1307   17.4970 H   0  0  0  0  0  0  0  0  0  0  0  0
   12.0315   -3.9203   16.9560 H   0  0  0  0  0  0  0  0  0  0  0  0
   10.6607   -2.6073   14.9207 H   0  0  0  0  0  0  0  0  0  0  0  0
   14.6315   -0.6177   16.6941 H   0  0  0  0  0  0  0  0  0  0  0  0
   16.4067   -0.7998   16.8147 H   0  0  0  0  0  0  0  0  0  0  0  0
  1  2  1  0
  2  3  1  0
  3  4  1  0
  4  5  1  0
  5  6  1  0
  6  7  1  0
  7  8  1  0
  8  9  1  0
  9 10  1  0
 10 11  1  0
 11 12  2  0
 12 13  1  0
 13 14  1  0
 14 15  2  0
 15 16  1  0
 16 17  2  0
 17 18  1  0
  5 19  1  0
 19  2  1  0
 18 10  2  0
 17 13  1  0
  1 20  1  0
  2 21  1  0
  3 22  1  0
  3 23  1  0
  4 24  1  0
  4 25  1  0
  6 26  1  0
  6 27  1  0
  7 28  1  0
  7 29  1  0
  8 30  1  0
  8 31  1  0
  9 32  1  0
 11 33  1  0
 12 34  1  0
 14 35  1  0
 15 36  1  0
 19 37  1  0
 19 38  1  0
M  END
>  <Energy>  (1015) 
35.597022213635391

>  <compound_id>  (1015) 
8827

>  <target_id>  (1015) 
1

>  <reference_id>  (1015) 
124

>  <inspiration_ids>  (1015) 
[124, 106]

>  <energy_score>  (1015) 
-41.4769444800973

>  <distance_score>  (1015) 
2.332969112827313

>  <path>  (1015) 
/opt/xchem-fragalysis-2/maxwin/BulkDock/SCRATCH/511014/C8827-P124/C8827-P124.minimised.mol

>  <scratch_subdir>  (1015) 
/opt/xchem-fragalysis-2/maxwin/BulkDock/SCRATCH/511014/C8827-P124

>  <fragmenstein_runtime>  (1015) 
1.8759996891021729

>  <fragmenstein_outcome>  (1015) 
too moved

>  <fragmenstein_mode>  (1015) 
expansion

>  <fragmenstein_error>  (1015) 


$$$$
C8827-P106
     RDKit          3D

 38 40  0  0  0  0  0  0  0  0999 V2000
   14.1255   -0.7128   19.1997 O   0  0  0  0  0  0  0  0  0  0  0  0
   14.9667   -0.2488   18.1833 C   0  0  0  0  0  0  0  0  0  0  0  0
   15.7776    0.9731   18.5846 C   0  0  0  0  0  0  0  0  0  0  0  0
   16.0786    1.6487   17.2450 C   0  0  0  0  0  0  0  0  0  0  0  0
   15.4767    0.7350   16.2804 N   0  0  0  0  0  0  0  0  0  0  0  0
   15.4242    1.1789   14.9038 C   0  0  0  0  0  0  0  0  0  0  0  0
   16.7970    0.9726   14.2175 C   0  0  0  0  0  0  0  0  0  0  0  0
   17.0941   -0.4054   13.5926 C   0  0  0  0  0  0  0  0  0  0  0  0
   17.1905   -1.5261   14.5359 N   0  0  0  0  0  0  0  0  0  0  0  0
   16.0404   -2.1546   14.9692 C   0  0  0  0  0  0  0  0  0  0  0  0
   16.0829   -3.0342   16.1868 C   0  0  0  0  0  0  0  0  0  0  0  0
   14.8981   -3.4546   16.6540 C   0  0  0  0  0  0  0  0  0  0  0  0
   13.7368   -3.0923   15.9937 N   0  0  0  0  0  0  0  0  0  0  0  0
   12.4252   -3.3797   16.2566 C   0  0  0  0  0  0  0  0  0  0  0  0
   11.7046   -2.7867   15.2488 C   0  0  0  0  0  0  0  0  0  0  0  0
   12.5362   -2.1334   14.3911 N   0  0  0  0  0  0  0  0  0  0  0  0
   13.7585   -2.3426   14.8328 C   0  0  0  0  0  0  0  0  0  0  0  0
   14.9372   -1.9194   14.3099 N   0  0  0  0  0  0  0  0  0  0  0  0
   14.2644    0.2629   16.9292 C   0  0  0  0  0  0  0  0  0  0  0  0
   14.6700   -0.8927   19.9858 H   0  0  0  0  0  0  0  0  0  0  0  0
   15.6568   -1.0647   17.9478 H   0  0  0  0  0  0  0  0  0  0  0  0
   15.2070    1.6361   19.2453 H   0  0  0  0  0  0  0  0  0  0  0  0
   16.6902    0.6801   19.1145 H   0  0  0  0  0  0  0  0  0  0  0  0
   15.6236    2.6459   17.2132 H   0  0  0  0  0  0  0  0  0  0  0  0
   17.1580    1.7523   17.0991 H   0  0  0  0  0  0  0  0  0  0  0  0
   14.6549    0.6485   14.3337 H   0  0  0  0  0  0  0  0  0  0  0  0
   15.1498    2.2404   14.8632 H   0  0  0  0  0  0  0  0  0  0  0  0
   17.6136    1.2385   14.8996 H   0  0  0  0  0  0  0  0  0  0  0  0
   16.8529    1.7031   13.3989 H   0  0  0  0  0  0  0  0  0  0  0  0
   16.3746   -0.6198   12.7932 H   0  0  0  0  0  0  0  0  0  0  0  0
   18.0674   -0.3345   13.0915 H   0  0  0  0  0  0  0  0  0  0  0  0
   17.9016   -1.3948   15.2440 H   0  0  0  0  0  0  0  0  0  0  0  0
   17.0321   -3.2776   16.6383 H   0  0  0  0  0  0  0  0  0  0  0  0
   14.7920   -4.0806   17.5294 H   0  0  0  0  0  0  0  0  0  0  0  0
   12.1414   -4.0020   17.0911 H   0  0  0  0  0  0  0  0  0  0  0  0
   10.6375   -2.8077   15.0746 H   0  0  0  0  0  0  0  0  0  0  0  0
   13.5465    1.0643   17.1479 H   0  0  0  0  0  0  0  0  0  0  0  0
   13.7214   -0.5140   16.4147 H   0  0  0  0  0  0  0  0  0  0  0  0
  1  2  1  0
  2  3  1  0
  3  4  1  0
  4  5  1  0
  5  6  1  0
  6  7  1  0
  7  8  1  0
  8  9  1  0
  9 10  1  0
 10 11  1  0
 11 12  2  0
 12 13  1  0
 13 14  1  0
 14 15  2  0
 15 16  1  0
 16 17  2  0
 17 18  1  0
  5 19  1  0
 19  2  1  0
 18 10  2  0
 17 13  1  0
  1 20  1  0
  2 21  1  0
  3 22  1  0
  3 23  1  0
  4 24  1  0
  4 25  1  0
  6 26  1  0
  6 27  1  0
  7 28  1  0
  7 29  1  0
  8 30  1  0
  8 31  1  0
  9 32  1  0
 11 33  1  0
 12 34  1  0
 14 35  1  0
 15 36  1  0
 19 37  1  0
 19 38  1  0
M  END
>  <Energy>  (1016) 
31.417071650811938

>  <compound_id>  (1016) 
8827

>  <target_id>  (1016) 
1

>  <reference_id>  (1016) 
106

>  <inspiration_ids>  (1016) 
[124, 106]

>  <energy_score>  (1016) 
-45.65689504292078

>  <distance_score>  (1016) 
2.1279520525153885

>  <path>  (1016) 
/opt/xchem-fragalysis-2/maxwin/BulkDock/SCRATCH/511014/C8827-P106/C8827-P106.minimised.mol

>  <scratch_subdir>  (1016) 
/opt/xchem-fragalysis-2/maxwin/BulkDock/SCRATCH/511014/C8827-P106

>  <fragmenstein_runtime>  (1016) 
1.7767586708068848

>  <fragmenstein_outcome>  (1016) 
too moved

>  <fragmenstein_mode>  (1016) 
expansion

>  <fragmenstein_error>  (1016) 


$$$$
C8828-P124
     RDKit          3D

 38 40  0  0  0  0  0  0  0  0999 V2000
   13.1213    1.3226   13.0783 C   0  0  0  0  0  0  0  0  0  0  0  0
   14.1054    1.1039   14.1181 N   0  0  0  0  0  0  0  0  0  0  0  0
   14.2042    2.2407   15.0413 C   0  0  0  0  0  0  0  0  0  0  0  0
   14.0119   -0.1301   14.8926 C   0  0  0  0  0  0  0  0  0  0  0  0
   13.5696   -1.5082   14.3293 C   0  0  0  0  0  0  0  0  0  0  0  0
   12.0953   -1.5845   13.9902 C   0  0  0  0  0  0  0  0  0  0  0  0
   11.4978   -2.7453   14.7508 C   0  0  0  0  0  0  0  0  0  0  0  0
   10.2067   -2.3514   15.1945 O   0  0  0  0  0  0  0  0  0  0  0  0
   12.4942   -3.0345   15.8607 C   0  0  0  0  0  0  0  0  0  0  0  0
   13.7884   -2.6116   15.3112 N   0  0  0  0  0  0  0  0  0  0  0  0
   14.8680   -2.4762   16.1573 C   0  0  0  0  0  0  0  0  0  0  0  0
   16.1799   -3.0750   15.7346 C   0  0  0  0  0  0  0  0  0  0  0  0
   17.2400   -2.7683   16.4896 C   0  0  0  0  0  0  0  0  0  0  0  0
   17.0557   -1.9366   17.5787 N   0  0  0  0  0  0  0  0  0  0  0  0
   17.9515   -1.4543   18.4918 C   0  0  0  0  0  0  0  0  0  0  0  0
   17.2254   -0.6268   19.3203 C   0  0  0  0  0  0  0  0  0  0  0  0
   15.9115   -0.5997   18.9574 N   0  0  0  0  0  0  0  0  0  0  0  0
   15.8142   -1.4278   17.9388 C   0  0  0  0  0  0  0  0  0  0  0  0
   14.7084   -1.7522   17.2333 N   0  0  0  0  0  0  0  0  0  0  0  0
   13.3611    2.2336   12.5173 H   0  0  0  0  0  0  0  0  0  0  0  0
   13.1481    0.5104   12.3462 H   0  0  0  0  0  0  0  0  0  0  0  0
   12.1012    1.4300   13.4481 H   0  0  0  0  0  0  0  0  0  0  0  0
   15.0040    2.0851   15.7747 H   0  0  0  0  0  0  0  0  0  0  0  0
   13.2742    2.4402   15.5784 H   0  0  0  0  0  0  0  0  0  0  0  0
   14.4692    3.1485   14.4873 H   0  0  0  0  0  0  0  0  0  0  0  0
   15.0402   -0.2456   15.2515 H   0  0  0  0  0  0  0  0  0  0  0  0
   13.4110    0.0700   15.7595 H   0  0  0  0  0  0  0  0  0  0  0  0
   14.1725   -1.7277   13.4394 H   0  0  0  0  0  0  0  0  0  0  0  0
   11.5564   -0.6554   14.1635 H   0  0  0  0  0  0  0  0  0  0  0  0
   11.9970   -1.7905   12.9322 H   0  0  0  0  0  0  0  0  0  0  0  0
   11.3858   -3.6107   14.0930 H   0  0  0  0  0  0  0  0  0  0  0  0
    9.7074   -2.1359   14.3716 H   0  0  0  0  0  0  0  0  0  0  0  0
   12.5100   -4.0999   16.1113 H   0  0  0  0  0  0  0  0  0  0  0  0
   12.2315   -2.5071   16.7733 H   0  0  0  0  0  0  0  0  0  0  0  0
   16.2211   -3.6957   14.8510 H   0  0  0  0  0  0  0  0  0  0  0  0
   18.2407   -3.1236   16.2862 H   0  0  0  0  0  0  0  0  0  0  0  0
   18.9992   -1.7141   18.4685 H   0  0  0  0  0  0  0  0  0  0  0  0
   17.5883   -0.0478   20.1598 H   0  0  0  0  0  0  0  0  0  0  0  0
  1  2  1  0
  2  3  1  0
  2  4  1  0
  4  5  1  0
  5  6  1  0
  6  7  1  0
  7  8  1  0
  7  9  1  0
  9 10  1  0
 10 11  1  0
 11 12  1  0
 12 13  2  0
 13 14  1  0
 14 15  1  0
 15 16  2  0
 16 17  1  0
 17 18  2  0
 18 19  1  0
 10  5  1  0
 19 11  2  0
 18 14  1  0
  1 20  1  0
  1 21  1  0
  1 22  1  0
  3 23  1  0
  3 24  1  0
  3 25  1  0
  4 26  1  0
  4 27  1  0
  5 28  1  0
  6 29  1  0
  6 30  1  0
  7 31  1  0
  8 32  1  0
  9 33  1  0
  9 34  1  0
 12 35  1  0
 13 36  1  0
 15 37  1  0
 16 38  1  0
M  END
>  <Energy>  (1017) 
70.034786216114298

>  <compound_id>  (1017) 
8828

>  <target_id>  (1017) 
1

>  <reference_id>  (1017) 
124

>  <inspiration_ids>  (1017) 
[124, 106]

>  <energy_score>  (1017) 
-27.41625677906228

>  <distance_score>  (1017) 
2.033499946727864

>  <path>  (1017) 
/opt/xchem-fragalysis-2/maxwin/BulkDock/SCRATCH/511014/C8828-P124/C8828-P124.minimised.mol

>  <scratch_subdir>  (1017) 
/opt/xchem-fragalysis-2/maxwin/BulkDock/SCRATCH/511014/C8828-P124

>  <fragmenstein_runtime>  (1017) 
8.464997291564941

>  <fragmenstein_outcome>  (1017) 
too moved

>  <fragmenstein_mode>  (1017) 
expansion

>  <fragmenstein_error>  (1017) 


$$$$
C8828-P106
     RDKit          3D

 38 40  0  0  0  0  0  0  0  0999 V2000
   11.1193    2.0001   15.7076 C   0  0  0  0  0  0  0  0  0  0  0  0
   12.4248    1.3575   15.7142 N   0  0  0  0  0  0  0  0  0  0  0  0
   13.3733    2.0689   16.5740 C   0  0  0  0  0  0  0  0  0  0  0  0
   12.3772   -0.0676   16.0825 C   0  0  0  0  0  0  0  0  0  0  0  0
   13.0330   -0.9053   14.9618 C   0  0  0  0  0  0  0  0  0  0  0  0
   11.9552   -1.5552   14.1128 C   0  0  0  0  0  0  0  0  0  0  0  0
   11.7381   -2.9318   14.7335 C   0  0  0  0  0  0  0  0  0  0  0  0
   10.4508   -3.0458   15.2838 O   0  0  0  0  0  0  0  0  0  0  0  0
   12.8098   -3.0790   15.8161 C   0  0  0  0  0  0  0  0  0  0  0  0
   13.7882   -2.0770   15.4308 N   0  0  0  0  0  0  0  0  0  0  0  0
   14.9659   -1.9385   16.1193 C   0  0  0  0  0  0  0  0  0  0  0  0
   15.9560   -3.0741   16.0751 C   0  0  0  0  0  0  0  0  0  0  0  0
   17.0480   -2.9428   16.8339 C   0  0  0  0  0  0  0  0  0  0  0  0
   17.1699   -1.8100   17.6145 N   0  0  0  0  0  0  0  0  0  0  0  0
   18.0807   -1.5046   18.5860 C   0  0  0  0  0  0  0  0  0  0  0  0
   17.6555   -0.3092   19.1222 C   0  0  0  0  0  0  0  0  0  0  0  0
   16.5388    0.1468   18.4859 N   0  0  0  0  0  0  0  0  0  0  0  0
   16.2479   -0.7725   17.5899 C   0  0  0  0  0  0  0  0  0  0  0  0
   15.1714   -0.8317   16.7781 N   0  0  0  0  0  0  0  0  0  0  0  0
   11.2008    3.0295   15.3409 H   0  0  0  0  0  0  0  0  0  0  0  0
   10.6519    2.0298   16.6942 H   0  0  0  0  0  0  0  0  0  0  0  0
   10.4398    1.4812   15.0223 H   0  0  0  0  0  0  0  0  0  0  0  0
   14.3834    1.6669   16.4567 H   0  0  0  0  0  0  0  0  0  0  0  0
   13.0927    2.0242   17.6319 H   0  0  0  0  0  0  0  0  0  0  0  0
   13.4319    3.1242   16.2841 H   0  0  0  0  0  0  0  0  0  0  0  0
   12.8449   -0.2424   17.0565 H   0  0  0  0  0  0  0  0  0  0  0  0
   11.3374   -0.3898   16.2274 H   0  0  0  0  0  0  0  0  0  0  0  0
   13.6859   -0.2848   14.3346 H   0  0  0  0  0  0  0  0  0  0  0  0
   11.0588   -0.9363   14.0459 H   0  0  0  0  0  0  0  0  0  0  0  0
   12.3578   -1.6917   13.1043 H   0  0  0  0  0  0  0  0  0  0  0  0
   11.8253   -3.6633   13.9310 H   0  0  0  0  0  0  0  0  0  0  0  0
   10.2413   -4.0046   15.3091 H   0  0  0  0  0  0  0  0  0  0  0  0
   13.2207   -4.0889   15.8661 H   0  0  0  0  0  0  0  0  0  0  0  0
   12.4043   -2.8599   16.8113 H   0  0  0  0  0  0  0  0  0  0  0  0
   15.7689   -3.9226   15.4354 H   0  0  0  0  0  0  0  0  0  0  0  0
   17.8259   -3.6908   16.8986 H   0  0  0  0  0  0  0  0  0  0  0  0
   18.9120   -2.1499   18.8274 H   0  0  0  0  0  0  0  0  0  0  0  0
   18.1088    0.2514   19.9295 H   0  0  0  0  0  0  0  0  0  0  0  0
  1  2  1  0
  2  3  1  0
  2  4  1  0
  4  5  1  0
  5  6  1  0
  6  7  1  0
  7  8  1  0
  7  9  1  0
  9 10  1  0
 10 11  1  0
 11 12  1  0
 12 13  2  0
 13 14  1  0
 14 15  1  0
 15 16  2  0
 16 17  1  0
 17 18  2  0
 18 19  1  0
 10  5  1  0
 19 11  2  0
 18 14  1  0
  1 20  1  0
  1 21  1  0
  1 22  1  0
  3 23  1  0
  3 24  1  0
  3 25  1  0
  4 26  1  0
  4 27  1  0
  5 28  1  0
  6 29  1  0
  6 30  1  0
  7 31  1  0
  8 32  1  0
  9 33  1  0
  9 34  1  0
 12 35  1  0
 13 36  1  0
 15 37  1  0
 16 38  1  0
M  END
>  <Energy>  (1018) 
67.230907532678145

>  <compound_id>  (1018) 
8828

>  <target_id>  (1018) 
1

>  <reference_id>  (1018) 
106

>  <inspiration_ids>  (1018) 
[124, 106]

>  <energy_score>  (1018) 
-30.220135462498433

>  <distance_score>  (1018) 
1.7239552471911102

>  <path>  (1018) 
/opt/xchem-fragalysis-2/maxwin/BulkDock/SCRATCH/511014/C8828-P106/C8828-P106.minimised.mol

>  <scratch_subdir>  (1018) 
/opt/xchem-fragalysis-2/maxwin/BulkDock/SCRATCH/511014/C8828-P106

>  <fragmenstein_runtime>  (1018) 
8.748668670654297

>  <fragmenstein_outcome>  (1018) 
too moved

>  <fragmenstein_mode>  (1018) 
expansion

>  <fragmenstein_error>  (1018) 


$$$$
C8829-P124
     RDKit          3D

 31 33  0  0  0  0  0  0  0  0999 V2000
   14.4387    0.9931   15.8320 O   0  0  0  0  0  0  0  0  0  0  0  0
   14.0078    1.2378   14.5090 C   0  0  0  0  0  0  0  0  0  0  0  0
   13.7115   -0.0364   13.7116 C   0  0  0  0  0  0  0  0  0  0  0  0
   14.8875   -1.0044   13.6055 C   0  0  0  0  0  0  0  0  0  0  0  0
   14.5665   -2.1704   14.4466 N   0  0  0  0  0  0  0  0  0  0  0  0
   15.2100   -2.1423   15.6780 C   0  0  0  0  0  0  0  0  0  0  0  0
   16.7089   -2.3327   15.6958 C   0  0  0  0  0  0  0  0  0  0  0  0
   17.3411   -1.8778   16.7839 C   0  0  0  0  0  0  0  0  0  0  0  0
   16.5857   -1.3424   17.8196 N   0  0  0  0  0  0  0  0  0  0  0  0
   16.9636   -0.7261   18.9832 C   0  0  0  0  0  0  0  0  0  0  0  0
   15.7892   -0.3621   19.5956 C   0  0  0  0  0  0  0  0  0  0  0  0
   14.7139   -0.7487   18.8567 N   0  0  0  0  0  0  0  0  0  0  0  0
   15.2029   -1.3657   17.8049 C   0  0  0  0  0  0  0  0  0  0  0  0
   14.5173   -1.8530   16.7440 N   0  0  0  0  0  0  0  0  0  0  0  0
   13.0971   -2.2923   14.3631 C   0  0  0  0  0  0  0  0  0  0  0  0
   12.5920   -0.8701   14.3059 C   0  0  0  0  0  0  0  0  0  0  0  0
   11.4347   -0.6692   13.5199 O   0  0  0  0  0  0  0  0  0  0  0  0
   14.4463    1.8430   16.3030 H   0  0  0  0  0  0  0  0  0  0  0  0
   14.8092    1.7917   14.0066 H   0  0  0  0  0  0  0  0  0  0  0  0
   13.1376    1.8979   14.5256 H   0  0  0  0  0  0  0  0  0  0  0  0
   13.4523    0.2953   12.6967 H   0  0  0  0  0  0  0  0  0  0  0  0
   15.8446   -0.5303   13.8522 H   0  0  0  0  0  0  0  0  0  0  0  0
   14.9747   -1.3588   12.5702 H   0  0  0  0  0  0  0  0  0  0  0  0
   17.1931   -2.7585   14.8286 H   0  0  0  0  0  0  0  0  0  0  0  0
   18.4157   -1.8943   16.9006 H   0  0  0  0  0  0  0  0  0  0  0  0
   17.9993   -0.5951   19.2581 H   0  0  0  0  0  0  0  0  0  0  0  0
   15.6667    0.1545   20.5390 H   0  0  0  0  0  0  0  0  0  0  0  0
   12.8108   -2.7997   13.4368 H   0  0  0  0  0  0  0  0  0  0  0  0
   12.6632   -2.8631   15.1920 H   0  0  0  0  0  0  0  0  0  0  0  0
   12.4039   -0.5948   15.3207 H   0  0  0  0  0  0  0  0  0  0  0  0
   10.7542   -1.3417   13.7191 H   0  0  0  0  0  0  0  0  0  0  0  0
  1  2  1  0
  2  3  1  0
  3  4  1  0
  4  5  1  0
  5  6  1  0
  6  7  1  0
  7  8  2  0
  8  9  1  0
  9 10  1  0
 10 11  2  0
 11 12  1  0
 12 13  2  0
 13 14  1  0
  5 15  1  0
 15 16  1  0
 16 17  1  0
 16  3  1  0
 14  6  2  0
 13  9  1  0
  1 18  1  0
  2 19  1  0
  2 20  1  0
  3 21  1  0
  4 22  1  0
  4 23  1  0
  7 24  1  0
  8 25  1  0
 10 26  1  0
 11 27  1  0
 15 28  1  0
 15 29  1  0
 16 30  1  0
 17 31  1  0
M  END
>  <Energy>  (1019) 
38.748933680939899

>  <compound_id>  (1019) 
8829

>  <target_id>  (1019) 
1

>  <reference_id>  (1019) 
124

>  <inspiration_ids>  (1019) 
[124, 106]

>  <energy_score>  (1019) 
-8.906618779788317

>  <distance_score>  (1019) 
2.3905928887541137

>  <path>  (1019) 
/opt/xchem-fragalysis-2/maxwin/BulkDock/SCRATCH/511014/C8829-P124/C8829-P124.minimised.mol

>  <scratch_subdir>  (1019) 
/opt/xchem-fragalysis-2/maxwin/BulkDock/SCRATCH/511014/C8829-P124

>  <fragmenstein_runtime>  (1019) 
5.857973337173462

>  <fragmenstein_outcome>  (1019) 
too moved

>  <fragmenstein_mode>  (1019) 
expansion

>  <fragmenstein_error>  (1019) 


$$$$
C8829-P106
     RDKit          3D

 31 33  0  0  0  0  0  0  0  0999 V2000
   12.6332    1.9356   16.8619 O   0  0  0  0  0  0  0  0  0  0  0  0
   11.8226    1.3157   15.8715 C   0  0  0  0  0  0  0  0  0  0  0  0
   12.5142    0.0510   15.4445 C   0  0  0  0  0  0  0  0  0  0  0  0
   12.7494   -0.9524   16.5512 C   0  0  0  0  0  0  0  0  0  0  0  0
   13.3548   -2.1038   15.8230 N   0  0  0  0  0  0  0  0  0  0  0  0
   14.7098   -2.2134   16.1357 C   0  0  0  0  0  0  0  0  0  0  0  0
   15.8271   -2.2198   15.1242 C   0  0  0  0  0  0  0  0  0  0  0  0
   16.9378   -1.5748   15.5174 C   0  0  0  0  0  0  0  0  0  0  0  0
   16.9858   -1.0570   16.8084 N   0  0  0  0  0  0  0  0  0  0  0  0
   17.8505   -0.1752   17.3950 C   0  0  0  0  0  0  0  0  0  0  0  0
   17.3232    0.0762   18.6375 C   0  0  0  0  0  0  0  0  0  0  0  0
   16.2082   -0.6687   18.8522 N   0  0  0  0  0  0  0  0  0  0  0  0
   16.0268   -1.3622   17.7529 C   0  0  0  0  0  0  0  0  0  0  0  0
   14.9526   -2.1108   17.4257 N   0  0  0  0  0  0  0  0  0  0  0  0
   12.7529   -2.0699   14.4694 C   0  0  0  0  0  0  0  0  0  0  0  0
   11.7673   -0.8685   14.5131 C   0  0  0  0  0  0  0  0  0  0  0  0
   11.4931   -0.2305   13.2884 O   0  0  0  0  0  0  0  0  0  0  0  0
   12.1231    2.6564   17.2791 H   0  0  0  0  0  0  0  0  0  0  0  0
   11.7155    2.0080   15.0304 H   0  0  0  0  0  0  0  0  0  0  0  0
   10.8252    1.1195   16.2752 H   0  0  0  0  0  0  0  0  0  0  0  0
   13.4759    0.3473   14.9977 H   0  0  0  0  0  0  0  0  0  0  0  0
   11.8103   -1.2937   16.9798 H   0  0  0  0  0  0  0  0  0  0  0  0
   13.3458   -0.5119   17.3544 H   0  0  0  0  0  0  0  0  0  0  0  0
   15.6763   -2.6250   14.1359 H   0  0  0  0  0  0  0  0  0  0  0  0
   17.7858   -1.3964   14.8710 H   0  0  0  0  0  0  0  0  0  0  0  0
   18.7139    0.2179   16.8801 H   0  0  0  0  0  0  0  0  0  0  0  0
   17.7038    0.7493   19.3947 H   0  0  0  0  0  0  0  0  0  0  0  0
   13.4962   -1.9245   13.6792 H   0  0  0  0  0  0  0  0  0  0  0  0
   12.2038   -2.9938   14.2664 H   0  0  0  0  0  0  0  0  0  0  0  0
   10.8102   -1.1780   14.9571 H   0  0  0  0  0  0  0  0  0  0  0  0
   10.7231   -0.7312   12.9385 H   0  0  0  0  0  0  0  0  0  0  0  0
  1  2  1  0
  2  3  1  0
  3  4  1  0
  4  5  1  0
  5  6  1  0
  6  7  1  0
  7  8  2  0
  8  9  1  0
  9 10  1  0
 10 11  2  0
 11 12  1  0
 12 13  2  0
 13 14  1  0
  5 15  1  0
 15 16  1  0
 16 17  1  0
 16  3  1  0
 14  6  2  0
 13  9  1  0
  1 18  1  0
  2 19  1  0
  2 20  1  0
  3 21  1  0
  4 22  1  0
  4 23  1  0
  7 24  1  0
  8 25  1  0
 10 26  1  0
 11 27  1  0
 15 28  1  0
 15 29  1  0
 16 30  1  0
 17 31  1  0
M  END
>  <Energy>  (1020) 
56.072282485683473

>  <compound_id>  (1020) 
8829

>  <target_id>  (1020) 
1

>  <reference_id>  (1020) 
106

>  <inspiration_ids>  (1020) 
[124, 106]

>  <energy_score>  (1020) 
8.41673002495503

>  <distance_score>  (1020) 
2.202650590763229

>  <path>  (1020) 
/opt/xchem-fragalysis-2/maxwin/BulkDock/SCRATCH/511014/C8829-P106/C8829-P106.minimised.mol

>  <scratch_subdir>  (1020) 
/opt/xchem-fragalysis-2/maxwin/BulkDock/SCRATCH/511014/C8829-P106

>  <fragmenstein_runtime>  (1020) 
6.068715333938599

>  <fragmenstein_outcome>  (1020) 
too moved

>  <fragmenstein_mode>  (1020) 
expansion

>  <fragmenstein_error>  (1020) 


$$$$
C8830-P124
     RDKit          3D

 36 39  0  0  0  0  0  0  0  0999 V2000
   12.7026   -1.4298   14.6230 C   0  0  0  0  0  0  0  0  0  0  0  0
   13.8192   -1.1158   15.3692 C   0  0  0  0  0  0  0  0  0  0  0  0
   14.0715   -1.8970   16.4904 C   0  0  0  0  0  0  0  0  0  0  0  0
   15.1039   -1.6230   17.3292 O   0  0  0  0  0  0  0  0  0  0  0  0
   14.9730   -0.6218   18.3660 C   0  0  0  0  0  0  0  0  0  0  0  0
   15.1728    0.8410   17.9166 C   0  0  0  0  0  0  0  0  0  0  0  0
   16.6303    1.1969   18.2529 C   0  0  0  0  0  0  0  0  0  0  0  0
   17.2652   -0.0979   18.5917 N   0  0  0  0  0  0  0  0  0  0  0  0
   17.7217   -0.8428   17.4895 C   0  0  0  0  0  0  0  0  0  0  0  0
   18.4175   -2.1636   17.7269 C   0  0  0  0  0  0  0  0  0  0  0  0
   18.3932   -3.0303   16.7048 C   0  0  0  0  0  0  0  0  0  0  0  0
   17.8134   -2.6387   15.5183 N   0  0  0  0  0  0  0  0  0  0  0  0
   17.5371   -3.3599   14.3989 C   0  0  0  0  0  0  0  0  0  0  0  0
   16.8621   -2.4833   13.5775 C   0  0  0  0  0  0  0  0  0  0  0  0
   16.7832   -1.2405   14.1279 N   0  0  0  0  0  0  0  0  0  0  0  0
   17.3609   -1.3480   15.3044 C   0  0  0  0  0  0  0  0  0  0  0  0
   17.3969   -0.4225   16.2927 N   0  0  0  0  0  0  0  0  0  0  0  0
   16.1741   -0.8056   19.3168 C   0  0  0  0  0  0  0  0  0  0  0  0
   13.2976   -3.0203   16.7560 C   0  0  0  0  0  0  0  0  0  0  0  0
   12.2075   -3.2504   15.9518 C   0  0  0  0  0  0  0  0  0  0  0  0
   11.8718   -2.4535   14.9222 N   0  0  0  0  0  0  0  0  0  0  0  0
   12.4260   -0.8452   13.7500 H   0  0  0  0  0  0  0  0  0  0  0  0
   14.4581   -0.2885   15.0870 H   0  0  0  0  0  0  0  0  0  0  0  0
   14.0701   -0.8011   18.9363 H   0  0  0  0  0  0  0  0  0  0  0  0
   14.9703    0.9999   16.8563 H   0  0  0  0  0  0  0  0  0  0  0  0
   14.5384    1.5176   18.4980 H   0  0  0  0  0  0  0  0  0  0  0  0
   17.1361    1.7394   17.4466 H   0  0  0  0  0  0  0  0  0  0  0  0
   16.6648    1.8448   19.1376 H   0  0  0  0  0  0  0  0  0  0  0  0
   18.8279   -2.3744   18.7032 H   0  0  0  0  0  0  0  0  0  0  0  0
   18.7891   -4.0345   16.7678 H   0  0  0  0  0  0  0  0  0  0  0  0
   17.7844   -4.4050   14.2963 H   0  0  0  0  0  0  0  0  0  0  0  0
   16.4365   -2.6922   12.6041 H   0  0  0  0  0  0  0  0  0  0  0  0
   15.9991   -0.3127   20.2810 H   0  0  0  0  0  0  0  0  0  0  0  0
   16.4091   -1.8586   19.5035 H   0  0  0  0  0  0  0  0  0  0  0  0
   13.5203   -3.6750   17.5885 H   0  0  0  0  0  0  0  0  0  0  0  0
   11.5538   -4.0999   16.1195 H   0  0  0  0  0  0  0  0  0  0  0  0
  1  2  2  0
  2  3  1  0
  3  4  1  0
  4  5  1  0
  5  6  1  0
  6  7  1  0
  7  8  1  0
  8  9  1  0
  9 10  1  0
 10 11  2  0
 11 12  1  0
 12 13  1  0
 13 14  2  0
 14 15  1  0
 15 16  2  0
 16 17  1  0
  8 18  1  0
  3 19  2  0
 19 20  1  0
 20 21  2  0
 21  1  1  0
 18  5  1  0
 17  9  2  0
 16 12  1  0
  1 22  1  0
  2 23  1  0
  5 24  1  0
  6 25  1  0
  6 26  1  0
  7 27  1  0
  7 28  1  0
 10 29  1  0
 11 30  1  0
 13 31  1  0
 14 32  1  0
 18 33  1  0
 18 34  1  0
 19 35  1  0
 20 36  1  0
M  END
>  <Energy>  (1021) 
47.555580685339578

>  <compound_id>  (1021) 
8830

>  <target_id>  (1021) 
1

>  <reference_id>  (1021) 
124

>  <inspiration_ids>  (1021) 
[124, 106]

>  <energy_score>  (1021) 
-5.961788856908299

>  <distance_score>  (1021) 
2.1000184245646945

>  <path>  (1021) 
/opt/xchem-fragalysis-2/maxwin/BulkDock/SCRATCH/511014/C8830-P124/C8830-P124.minimised.mol

>  <scratch_subdir>  (1021) 
/opt/xchem-fragalysis-2/maxwin/BulkDock/SCRATCH/511014/C8830-P124

>  <fragmenstein_runtime>  (1021) 
31.332959413528442

>  <fragmenstein_outcome>  (1021) 
too moved

>  <fragmenstein_mode>  (1021) 
expansion

>  <fragmenstein_error>  (1021) 


$$$$
C8830-P106
     RDKit          3D

 36 39  0  0  0  0  0  0  0  0999 V2000
   13.7733   -1.6418   14.5604 C   0  0  0  0  0  0  0  0  0  0  0  0
   13.8622   -0.4705   15.2791 C   0  0  0  0  0  0  0  0  0  0  0  0
   12.7712   -0.0920   16.0212 C   0  0  0  0  0  0  0  0  0  0  0  0
   12.7523    1.0178   16.8024 O   0  0  0  0  0  0  0  0  0  0  0  0
   13.7743    1.2722   17.7786 C   0  0  0  0  0  0  0  0  0  0  0  0
   14.9921    2.0242   17.2608 C   0  0  0  0  0  0  0  0  0  0  0  0
   16.1118    1.5505   18.1772 C   0  0  0  0  0  0  0  0  0  0  0  0
   15.7857    0.1469   18.5009 N   0  0  0  0  0  0  0  0  0  0  0  0
   16.3265   -0.8717   17.7221 C   0  0  0  0  0  0  0  0  0  0  0  0
   16.2540   -2.2946   18.2312 C   0  0  0  0  0  0  0  0  0  0  0  0
   16.6034   -3.2609   17.3702 C   0  0  0  0  0  0  0  0  0  0  0  0
   17.0038   -2.9082   16.1029 N   0  0  0  0  0  0  0  0  0  0  0  0
   17.3189   -3.6866   15.0300 C   0  0  0  0  0  0  0  0  0  0  0  0
   17.4640   -2.7955   13.9923 C   0  0  0  0  0  0  0  0  0  0  0  0
   17.3248   -1.5069   14.4124 N   0  0  0  0  0  0  0  0  0  0  0  0
   17.0938   -1.5861   15.7030 C   0  0  0  0  0  0  0  0  0  0  0  0
   16.8192   -0.5675   16.5527 N   0  0  0  0  0  0  0  0  0  0  0  0
   14.3159    0.0946   18.6167 C   0  0  0  0  0  0  0  0  0  0  0  0
   11.5884   -0.8137   15.8948 C   0  0  0  0  0  0  0  0  0  0  0  0
   11.5978   -1.9877   15.1722 C   0  0  0  0  0  0  0  0  0  0  0  0
   12.6871   -2.4350   14.5387 N   0  0  0  0  0  0  0  0  0  0  0  0
   14.6060   -1.9813   13.9511 H   0  0  0  0  0  0  0  0  0  0  0  0
   14.7698    0.1076   15.2118 H   0  0  0  0  0  0  0  0  0  0  0  0
   13.2854    1.9490   18.4913 H   0  0  0  0  0  0  0  0  0  0  0  0
   15.2170    1.8143   16.2149 H   0  0  0  0  0  0  0  0  0  0  0  0
   14.8553    3.1092   17.3269 H   0  0  0  0  0  0  0  0  0  0  0  0
   17.1034    1.6749   17.7295 H   0  0  0  0  0  0  0  0  0  0  0  0
   16.1034    2.1289   19.1093 H   0  0  0  0  0  0  0  0  0  0  0  0
   15.9101   -2.4740   19.2399 H   0  0  0  0  0  0  0  0  0  0  0  0
   16.5599   -4.3142   17.6117 H   0  0  0  0  0  0  0  0  0  0  0  0
   17.3345   -4.7656   15.0678 H   0  0  0  0  0  0  0  0  0  0  0  0
   17.6605   -3.0270   12.9536 H   0  0  0  0  0  0  0  0  0  0  0  0
   14.0606    0.2340   19.6731 H   0  0  0  0  0  0  0  0  0  0  0  0
   13.9092   -0.8696   18.3029 H   0  0  0  0  0  0  0  0  0  0  0  0
   10.6719   -0.4498   16.3310 H   0  0  0  0  0  0  0  0  0  0  0  0
   10.7059   -2.5917   15.0424 H   0  0  0  0  0  0  0  0  0  0  0  0
  1  2  2  0
  2  3  1  0
  3  4  1  0
  4  5  1  0
  5  6  1  0
  6  7  1  0
  7  8  1  0
  8  9  1  0
  9 10  1  0
 10 11  2  0
 11 12  1  0
 12 13  1  0
 13 14  2  0
 14 15  1  0
 15 16  2  0
 16 17  1  0
  8 18  1  0
  3 19  2  0
 19 20  1  0
 20 21  2  0
 21  1  1  0
 18  5  1  0
 17  9  2  0
 16 12  1  0
  1 22  1  0
  2 23  1  0
  5 24  1  0
  6 25  1  0
  6 26  1  0
  7 27  1  0
  7 28  1  0
 10 29  1  0
 11 30  1  0
 13 31  1  0
 14 32  1  0
 18 33  1  0
 18 34  1  0
 19 35  1  0
 20 36  1  0
M  END
>  <Energy>  (1022) 
35.491374808234262

>  <compound_id>  (1022) 
8830

>  <target_id>  (1022) 
1

>  <reference_id>  (1022) 
106

>  <inspiration_ids>  (1022) 
[124, 106]

>  <energy_score>  (1022) 
-18.025994734012983

>  <distance_score>  (1022) 
2.0216068621568035

>  <path>  (1022) 
/opt/xchem-fragalysis-2/maxwin/BulkDock/SCRATCH/511014/C8830-P106/C8830-P106.minimised.mol

>  <scratch_subdir>  (1022) 
/opt/xchem-fragalysis-2/maxwin/BulkDock/SCRATCH/511014/C8830-P106

>  <fragmenstein_runtime>  (1022) 
34.119566679000854

>  <fragmenstein_outcome>  (1022) 
too moved

>  <fragmenstein_mode>  (1022) 
expansion

>  <fragmenstein_error>  (1022) 


$$$$
C8831-P124
     RDKit          3D

 34 36  0  0  0  0  0  0  0  0999 V2000
   14.4396    1.4134   15.3701 C   0  0  0  0  0  0  0  0  0  0  0  0
   14.4877    0.2475   14.5563 O   0  0  0  0  0  0  0  0  0  0  0  0
   13.2364   -0.4314   14.4944 C   0  0  0  0  0  0  0  0  0  0  0  0
   13.3942   -1.9234   14.1988 C   0  0  0  0  0  0  0  0  0  0  0  0
   12.0508   -2.5901   13.9356 C   0  0  0  0  0  0  0  0  0  0  0  0
   11.5863   -3.1162   15.2695 C   0  0  0  0  0  0  0  0  0  0  0  0
   10.7662   -2.1250   15.8469 O   0  0  0  0  0  0  0  0  0  0  0  0
   12.8605   -3.3788   16.0704 C   0  0  0  0  0  0  0  0  0  0  0  0
   13.9272   -2.6872   15.3452 N   0  0  0  0  0  0  0  0  0  0  0  0
   15.0243   -2.2301   16.0246 C   0  0  0  0  0  0  0  0  0  0  0  0
   16.3770   -2.6168   15.5017 C   0  0  0  0  0  0  0  0  0  0  0  0
   17.4240   -2.2170   16.2296 C   0  0  0  0  0  0  0  0  0  0  0  0
   17.1879   -1.4494   17.3547 N   0  0  0  0  0  0  0  0  0  0  0  0
   18.0558   -0.9248   18.2714 C   0  0  0  0  0  0  0  0  0  0  0  0
   17.2766   -0.2031   19.1488 C   0  0  0  0  0  0  0  0  0  0  0  0
   15.9573   -0.2844   18.8146 N   0  0  0  0  0  0  0  0  0  0  0  0
   15.9137   -1.0740   17.7618 C   0  0  0  0  0  0  0  0  0  0  0  0
   14.8231   -1.5180   17.1003 N   0  0  0  0  0  0  0  0  0  0  0  0
   15.3608    1.9779   15.1996 H   0  0  0  0  0  0  0  0  0  0  0  0
   13.5939    2.0506   15.0986 H   0  0  0  0  0  0  0  0  0  0  0  0
   14.4111    1.1433   16.4242 H   0  0  0  0  0  0  0  0  0  0  0  0
   12.6298    0.0564   13.7246 H   0  0  0  0  0  0  0  0  0  0  0  0
   12.7581   -0.3557   15.4435 H   0  0  0  0  0  0  0  0  0  0  0  0
   14.0611   -2.0451   13.3370 H   0  0  0  0  0  0  0  0  0  0  0  0
   12.1703   -3.4330   13.2584 H   0  0  0  0  0  0  0  0  0  0  0  0
   11.3653   -1.8814   13.4826 H   0  0  0  0  0  0  0  0  0  0  0  0
   10.9712   -4.0072   15.1695 H   0  0  0  0  0  0  0  0  0  0  0  0
   11.0568   -2.0366   16.7679 H   0  0  0  0  0  0  0  0  0  0  0  0
   13.0929   -4.4458   16.1015 H   0  0  0  0  0  0  0  0  0  0  0  0
   12.7756   -3.0433   17.1069 H   0  0  0  0  0  0  0  0  0  0  0  0
   16.4462   -3.2092   14.6002 H   0  0  0  0  0  0  0  0  0  0  0  0
   18.4496   -2.4468   15.9771 H   0  0  0  0  0  0  0  0  0  0  0  0
   19.1222   -1.0850   18.2159 H   0  0  0  0  0  0  0  0  0  0  0  0
   17.6050    0.3721   20.0048 H   0  0  0  0  0  0  0  0  0  0  0  0
  1  2  1  0
  2  3  1  0
  3  4  1  0
  4  5  1  0
  5  6  1  0
  6  7  1  0
  6  8  1  0
  8  9  1  0
  9 10  1  0
 10 11  1  0
 11 12  2  0
 12 13  1  0
 13 14  1  0
 14 15  2  0
 15 16  1  0
 16 17  2  0
 17 18  1  0
  9  4  1  0
 18 10  2  0
 17 13  1  0
  1 19  1  0
  1 20  1  0
  1 21  1  0
  3 22  1  0
  3 23  1  0
  4 24  1  0
  5 25  1  0
  5 26  1  0
  6 27  1  0
  7 28  1  0
  8 29  1  0
  8 30  1  0
 11 31  1  0
 12 32  1  0
 14 33  1  0
 15 34  1  0
M  END
>  <Energy>  (1023) 
52.256911245299698

>  <compound_id>  (1023) 
8831

>  <target_id>  (1023) 
1

>  <reference_id>  (1023) 
124

>  <inspiration_ids>  (1023) 
[124, 106]

>  <energy_score>  (1023) 
-31.479023956537816

>  <distance_score>  (1023) 
2.0177144231049757

>  <path>  (1023) 
/opt/xchem-fragalysis-2/maxwin/BulkDock/SCRATCH/511014/C8831-P124/C8831-P124.minimised.mol

>  <scratch_subdir>  (1023) 
/opt/xchem-fragalysis-2/maxwin/BulkDock/SCRATCH/511014/C8831-P124

>  <fragmenstein_runtime>  (1023) 
5.767754077911377

>  <fragmenstein_outcome>  (1023) 
too moved

>  <fragmenstein_mode>  (1023) 
expansion

>  <fragmenstein_error>  (1023) 


$$$$
C8831-P106
     RDKit          3D

 34 36  0  0  0  0  0  0  0  0999 V2000
   13.7213    1.8985   16.7209 C   0  0  0  0  0  0  0  0  0  0  0  0
   13.7799    1.0668   15.5677 O   0  0  0  0  0  0  0  0  0  0  0  0
   12.7139    0.1199   15.5561 C   0  0  0  0  0  0  0  0  0  0  0  0
   13.0713   -1.0860   14.6529 C   0  0  0  0  0  0  0  0  0  0  0  0
   11.8253   -1.7574   14.1131 C   0  0  0  0  0  0  0  0  0  0  0  0
   11.3372   -2.5828   15.2844 C   0  0  0  0  0  0  0  0  0  0  0  0
   10.5387   -1.7134   16.0934 O   0  0  0  0  0  0  0  0  0  0  0  0
   12.6316   -3.0301   15.9892 C   0  0  0  0  0  0  0  0  0  0  0  0
   13.6953   -2.2166   15.3732 N   0  0  0  0  0  0  0  0  0  0  0  0
   14.8469   -1.9967   16.0838 C   0  0  0  0  0  0  0  0  0  0  0  0
   16.1087   -2.6380   15.5794 C   0  0  0  0  0  0  0  0  0  0  0  0
   17.2064   -2.4406   16.3164 C   0  0  0  0  0  0  0  0  0  0  0  0
   17.1048   -1.6516   17.4467 N   0  0  0  0  0  0  0  0  0  0  0  0
   18.0449   -1.3087   18.3780 C   0  0  0  0  0  0  0  0  0  0  0  0
   17.3973   -0.4796   19.2674 C   0  0  0  0  0  0  0  0  0  0  0  0
   16.0887   -0.3157   18.9238 N   0  0  0  0  0  0  0  0  0  0  0  0
   15.9155   -1.0536   17.8477 C   0  0  0  0  0  0  0  0  0  0  0  0
   14.7709   -1.2710   17.1643 N   0  0  0  0  0  0  0  0  0  0  0  0
   14.5509    2.6089   16.6729 H   0  0  0  0  0  0  0  0  0  0  0  0
   12.7817    2.4595   16.7353 H   0  0  0  0  0  0  0  0  0  0  0  0
   13.8196    1.3125   17.6388 H   0  0  0  0  0  0  0  0  0  0  0  0
   11.8352    0.6468   15.1672 H   0  0  0  0  0  0  0  0  0  0  0  0
   12.5021   -0.1917   16.5811 H   0  0  0  0  0  0  0  0  0  0  0  0
   13.7223   -0.7642   13.8317 H   0  0  0  0  0  0  0  0  0  0  0  0
   12.0872   -2.4134   13.2765 H   0  0  0  0  0  0  0  0  0  0  0  0
   11.1249   -0.9909   13.7833 H   0  0  0  0  0  0  0  0  0  0  0  0
   10.7144   -3.4257   14.9800 H   0  0  0  0  0  0  0  0  0  0  0  0
   11.0786   -1.5014   16.8760 H   0  0  0  0  0  0  0  0  0  0  0  0
   12.8362   -4.0858   15.8110 H   0  0  0  0  0  0  0  0  0  0  0  0
   12.5831   -2.8806   17.0730 H   0  0  0  0  0  0  0  0  0  0  0  0
   16.0803   -3.2251   14.6726 H   0  0  0  0  0  0  0  0  0  0  0  0
   18.1738   -2.8563   16.0716 H   0  0  0  0  0  0  0  0  0  0  0  0
   19.0655   -1.6571   18.3266 H   0  0  0  0  0  0  0  0  0  0  0  0
   17.8138    0.0083   20.1393 H   0  0  0  0  0  0  0  0  0  0  0  0
  1  2  1  0
  2  3  1  0
  3  4  1  0
  4  5  1  0
  5  6  1  0
  6  7  1  0
  6  8  1  0
  8  9  1  0
  9 10  1  0
 10 11  1  0
 11 12  2  0
 12 13  1  0
 13 14  1  0
 14 15  2  0
 15 16  1  0
 16 17  2  0
 17 18  1  0
  9  4  1  0
 18 10  2  0
 17 13  1  0
  1 19  1  0
  1 20  1  0
  1 21  1  0
  3 22  1  0
  3 23  1  0
  4 24  1  0
  5 25  1  0
  5 26  1  0
  6 27  1  0
  7 28  1  0
  8 29  1  0
  8 30  1  0
 11 31  1  0
 12 32  1  0
 14 33  1  0
 15 34  1  0
M  END
>  <Energy>  (1024) 
55.669688780850073

>  <compound_id>  (1024) 
8831

>  <target_id>  (1024) 
1

>  <reference_id>  (1024) 
106

>  <inspiration_ids>  (1024) 
[124, 106]

>  <energy_score>  (1024) 
-28.066246420987312

>  <distance_score>  (1024) 
1.764363023490898

>  <path>  (1024) 
/opt/xchem-fragalysis-2/maxwin/BulkDock/SCRATCH/511014/C8831-P106/C8831-P106.minimised.mol

>  <scratch_subdir>  (1024) 
/opt/xchem-fragalysis-2/maxwin/BulkDock/SCRATCH/511014/C8831-P106

>  <fragmenstein_runtime>  (1024) 
5.539159297943115

>  <fragmenstein_outcome>  (1024) 
too moved

>  <fragmenstein_mode>  (1024) 
expansion

>  <fragmenstein_error>  (1024) 


$$$$
C8832-P124
     RDKit          3D

 36 39  0  0  0  0  0  0  0  0999 V2000
   13.2136    1.6010   14.2349 O   0  0  0  0  0  0  0  0  0  0  0  0
   14.0601    0.4805   14.1846 C   0  0  0  0  0  0  0  0  0  0  0  0
   13.7501   -0.4909   13.0786 C   0  0  0  0  0  0  0  0  0  0  0  0
   14.5911   -1.6928   13.5064 C   0  0  0  0  0  0  0  0  0  0  0  0
   14.5186   -1.7339   14.9783 N   0  0  0  0  0  0  0  0  0  0  0  0
   15.8072   -2.0773   15.6267 C   0  0  0  0  0  0  0  0  0  0  0  0
   16.7796   -0.9048   15.8062 C   0  0  0  0  0  0  0  0  0  0  0  0
   16.6235   -0.9996   17.2334 N   0  0  0  0  0  0  0  0  0  0  0  0
   16.3232    0.1351   17.9855 C   0  0  0  0  0  0  0  0  0  0  0  0
   17.0550    1.4260   17.6538 C   0  0  0  0  0  0  0  0  0  0  0  0
   16.8017    2.5020   18.4056 C   0  0  0  0  0  0  0  0  0  0  0  0
   15.9020    2.3869   19.4429 N   0  0  0  0  0  0  0  0  0  0  0  0
   15.4859    3.3240   20.3496 C   0  0  0  0  0  0  0  0  0  0  0  0
   14.5984    2.6632   21.1622 C   0  0  0  0  0  0  0  0  0  0  0  0
   14.4552    1.3596   20.7683 N   0  0  0  0  0  0  0  0  0  0  0  0
   15.2508    1.1947   19.7292 C   0  0  0  0  0  0  0  0  0  0  0  0
   15.4665    0.0725   18.9816 N   0  0  0  0  0  0  0  0  0  0  0  0
   15.6801   -2.0875   17.1658 C   0  0  0  0  0  0  0  0  0  0  0  0
   13.9294   -0.4565   15.3632 C   0  0  0  0  0  0  0  0  0  0  0  0
   12.3217    1.3311   14.5398 H   0  0  0  0  0  0  0  0  0  0  0  0
   15.0811    0.8569   14.0711 H   0  0  0  0  0  0  0  0  0  0  0  0
   14.0263   -0.1081   12.0919 H   0  0  0  0  0  0  0  0  0  0  0  0
   12.6819   -0.7333   13.0652 H   0  0  0  0  0  0  0  0  0  0  0  0
   14.2049   -2.5889   13.0269 H   0  0  0  0  0  0  0  0  0  0  0  0
   15.6238   -1.5477   13.1638 H   0  0  0  0  0  0  0  0  0  0  0  0
   16.2693   -2.9897   15.2309 H   0  0  0  0  0  0  0  0  0  0  0  0
   16.5225    0.0618   15.3764 H   0  0  0  0  0  0  0  0  0  0  0  0
   17.8109   -1.1388   15.5177 H   0  0  0  0  0  0  0  0  0  0  0  0
   17.7735    1.4342   16.8463 H   0  0  0  0  0  0  0  0  0  0  0  0
   17.2787    3.4608   18.2528 H   0  0  0  0  0  0  0  0  0  0  0  0
   15.8501    4.3405   20.3446 H   0  0  0  0  0  0  0  0  0  0  0  0
   14.0532    3.0540   22.0116 H   0  0  0  0  0  0  0  0  0  0  0  0
   16.0876   -2.9842   17.6453 H   0  0  0  0  0  0  0  0  0  0  0  0
   14.6911   -1.8863   17.5869 H   0  0  0  0  0  0  0  0  0  0  0  0
   12.8689   -0.6800   15.4675 H   0  0  0  0  0  0  0  0  0  0  0  0
   14.2869    0.0109   16.2776 H   0  0  0  0  0  0  0  0  0  0  0  0
  1  2  1  0
  2  3  1  0
  3  4  1  0
  4  5  1  0
  5  6  1  0
  6  7  1  0
  7  8  1  0
  8  9  1  0
  9 10  1  0
 10 11  2  0
 11 12  1  0
 12 13  1  0
 13 14  2  0
 14 15  1  0
 15 16  2  0
 16 17  1  0
  8 18  1  0
  5 19  1  0
 19  2  1  0
 18  6  1  0
 17  9  2  0
 16 12  1  0
  1 20  1  0
  2 21  1  0
  3 22  1  0
  3 23  1  0
  4 24  1  0
  4 25  1  0
  6 26  1  0
  7 27  1  0
  7 28  1  0
 10 29  1  0
 11 30  1  0
 13 31  1  0
 14 32  1  0
 18 33  1  0
 18 34  1  0
 19 35  1  0
 19 36  1  0
M  END
>  <Energy>  (1025) 
90.817370787704249

>  <compound_id>  (1025) 
8832

>  <target_id>  (1025) 
1

>  <reference_id>  (1025) 
124

>  <inspiration_ids>  (1025) 
[124, 106]

>  <energy_score>  (1025) 
-38.51680421975135

>  <distance_score>  (1025) 
2.5326116396511784

>  <path>  (1025) 
/opt/xchem-fragalysis-2/maxwin/BulkDock/SCRATCH/511014/C8832-P124/C8832-P124.minimised.mol

>  <scratch_subdir>  (1025) 
/opt/xchem-fragalysis-2/maxwin/BulkDock/SCRATCH/511014/C8832-P124

>  <fragmenstein_runtime>  (1025) 
9.991309404373169

>  <fragmenstein_outcome>  (1025) 
too moved

>  <fragmenstein_mode>  (1025) 
expansion

>  <fragmenstein_error>  (1025) 


$$$$
C8832-P106
     RDKit          3D

 36 39  0  0  0  0  0  0  0  0999 V2000
   11.2710    0.8838   15.9463 O   0  0  0  0  0  0  0  0  0  0  0  0
   12.2659   -0.0041   15.4789 C   0  0  0  0  0  0  0  0  0  0  0  0
   11.7037   -1.3788   15.1990 C   0  0  0  0  0  0  0  0  0  0  0  0
   12.9312   -2.2577   15.3186 C   0  0  0  0  0  0  0  0  0  0  0  0
   13.6537   -1.6865   16.4543 N   0  0  0  0  0  0  0  0  0  0  0  0
   15.0548   -2.1491   16.5409 C   0  0  0  0  0  0  0  0  0  0  0  0
   16.1465   -1.1278   16.1948 C   0  0  0  0  0  0  0  0  0  0  0  0
   16.3585   -0.8866   17.6050 N   0  0  0  0  0  0  0  0  0  0  0  0
   16.0331    0.3560   18.1471 C   0  0  0  0  0  0  0  0  0  0  0  0
   16.6424    1.5882   17.5022 C   0  0  0  0  0  0  0  0  0  0  0  0
   16.3223    2.7817   18.0152 C   0  0  0  0  0  0  0  0  0  0  0  0
   15.4749    2.8322   19.1038 N   0  0  0  0  0  0  0  0  0  0  0  0
   14.9915    3.9124   19.7909 C   0  0  0  0  0  0  0  0  0  0  0  0
   14.1881    3.3803   20.7700 C   0  0  0  0  0  0  0  0  0  0  0  0
   14.1794    2.0121   20.7061 N   0  0  0  0  0  0  0  0  0  0  0  0
   14.9568    1.6869   19.6920 C   0  0  0  0  0  0  0  0  0  0  0  0
   15.2565    0.4513   19.2025 N   0  0  0  0  0  0  0  0  0  0  0  0
   15.5590   -2.0301   17.9893 C   0  0  0  0  0  0  0  0  0  0  0  0
   13.3640   -0.2591   16.5102 C   0  0  0  0  0  0  0  0  0  0  0  0
   11.7179    1.6837   16.2780 H   0  0  0  0  0  0  0  0  0  0  0  0
   12.6990    0.4098   14.5596 H   0  0  0  0  0  0  0  0  0  0  0  0
   11.2586   -1.4349   14.2053 H   0  0  0  0  0  0  0  0  0  0  0  0
   10.9332   -1.6525   15.9271 H   0  0  0  0  0  0  0  0  0  0  0  0
   12.6573   -3.3012   15.4966 H   0  0  0  0  0  0  0  0  0  0  0  0
   13.5258   -2.1891   14.3994 H   0  0  0  0  0  0  0  0  0  0  0  0
   15.2201   -3.1478   16.1189 H   0  0  0  0  0  0  0  0  0  0  0  0
   15.9066   -0.2692   15.5664 H   0  0  0  0  0  0  0  0  0  0  0  0
   17.0451   -1.5908   15.7654 H   0  0  0  0  0  0  0  0  0  0  0  0
   17.3189    1.4606   16.6688 H   0  0  0  0  0  0  0  0  0  0  0  0
   16.7026    3.7175   17.6286 H   0  0  0  0  0  0  0  0  0  0  0  0
   15.2429    4.9295   19.5309 H   0  0  0  0  0  0  0  0  0  0  0  0
   13.6131    3.9082   21.5194 H   0  0  0  0  0  0  0  0  0  0  0  0
   16.2103   -2.8550   18.3026 H   0  0  0  0  0  0  0  0  0  0  0  0
   14.8060   -1.8763   18.7670 H   0  0  0  0  0  0  0  0  0  0  0  0
   13.0395    0.0088   17.5171 H   0  0  0  0  0  0  0  0  0  0  0  0
   14.1776    0.4186   16.2579 H   0  0  0  0  0  0  0  0  0  0  0  0
  1  2  1  0
  2  3  1  0
  3  4  1  0
  4  5  1  0
  5  6  1  0
  6  7  1  0
  7  8  1  0
  8  9  1  0
  9 10  1  0
 10 11  2  0
 11 12  1  0
 12 13  1  0
 13 14  2  0
 14 15  1  0
 15 16  2  0
 16 17  1  0
  8 18  1  0
  5 19  1  0
 19  2  1  0
 18  6  1  0
 17  9  2  0
 16 12  1  0
  1 20  1  0
  2 21  1  0
  3 22  1  0
  3 23  1  0
  4 24  1  0
  4 25  1  0
  6 26  1  0
  7 27  1  0
  7 28  1  0
 10 29  1  0
 11 30  1  0
 13 31  1  0
 14 32  1  0
 18 33  1  0
 18 34  1  0
 19 35  1  0
 19 36  1  0
M  END
>  <Energy>  (1026) 
90.047276800800176

>  <compound_id>  (1026) 
8832

>  <target_id>  (1026) 
1

>  <reference_id>  (1026) 
106

>  <inspiration_ids>  (1026) 
[124, 106]

>  <energy_score>  (1026) 
-39.286898206655565

>  <distance_score>  (1026) 
1.6897008216512788

>  <path>  (1026) 
/opt/xchem-fragalysis-2/maxwin/BulkDock/SCRATCH/511014/C8832-P106/C8832-P106.minimised.mol

>  <scratch_subdir>  (1026) 
/opt/xchem-fragalysis-2/maxwin/BulkDock/SCRATCH/511014/C8832-P106

>  <fragmenstein_runtime>  (1026) 
10.449460983276367

>  <fragmenstein_outcome>  (1026) 
too moved

>  <fragmenstein_mode>  (1026) 
expansion

>  <fragmenstein_error>  (1026) 


$$$$
C8834-P124
     RDKit          3D

 44 47  0  0  0  0  0  0  0  0999 V2000
   16.1280    1.8918   18.1173 C   0  0  0  0  0  0  0  0  0  0  0  0
   16.6555    0.5518   18.3202 N   0  0  0  0  0  0  0  0  0  0  0  0
   16.0484   -0.1946   19.4612 C   0  0  0  0  0  0  0  0  0  0  0  0
   15.2267   -1.4046   19.0412 C   0  0  0  0  0  0  0  0  0  0  0  0
   15.0865   -2.5050   19.8855 C   0  0  0  0  0  0  0  0  0  0  0  0
   14.4015   -3.6316   19.4371 C   0  0  0  0  0  0  0  0  0  0  0  0
   13.8461   -3.6545   18.1486 C   0  0  0  0  0  0  0  0  0  0  0  0
   13.9654   -2.5834   17.2622 C   0  0  0  0  0  0  0  0  0  0  0  0
   13.3699   -2.5833   16.0151 N   0  0  0  0  0  0  0  0  0  0  0  0
   12.0720   -3.2157   15.8584 C   0  0  0  0  0  0  0  0  0  0  0  0
   11.6073   -2.8528   14.4667 C   0  0  0  0  0  0  0  0  0  0  0  0
   12.3216   -1.5626   14.1460 C   0  0  0  0  0  0  0  0  0  0  0  0
   13.5988   -1.5857   14.9733 C   0  0  0  0  0  0  0  0  0  0  0  0
   14.6525   -1.4744   17.7562 C   0  0  0  0  0  0  0  0  0  0  0  0
   17.2305   -0.2029   17.2823 C   0  0  0  0  0  0  0  0  0  0  0  0
   17.3357    0.3377   15.8667 C   0  0  0  0  0  0  0  0  0  0  0  0
   17.4480   -0.5710   14.8856 C   0  0  0  0  0  0  0  0  0  0  0  0
   17.4994   -1.9074   15.2205 N   0  0  0  0  0  0  0  0  0  0  0  0
   17.4378   -3.0113   14.4245 C   0  0  0  0  0  0  0  0  0  0  0  0
   17.3128   -4.0570   15.2994 C   0  0  0  0  0  0  0  0  0  0  0  0
   17.4292   -3.6405   16.5908 N   0  0  0  0  0  0  0  0  0  0  0  0
   17.5620   -2.3337   16.5334 C   0  0  0  0  0  0  0  0  0  0  0  0
   17.5746   -1.4418   17.5591 N   0  0  0  0  0  0  0  0  0  0  0  0
   16.8678    2.5308   17.6249 H   0  0  0  0  0  0  0  0  0  0  0  0
   15.8892    2.3751   19.0708 H   0  0  0  0  0  0  0  0  0  0  0  0
   15.2192    1.8640   17.5081 H   0  0  0  0  0  0  0  0  0  0  0  0
   16.8688   -0.5214   20.1123 H   0  0  0  0  0  0  0  0  0  0  0  0
   15.4037    0.4596   20.0603 H   0  0  0  0  0  0  0  0  0  0  0  0
   15.5263   -2.5055   20.8789 H   0  0  0  0  0  0  0  0  0  0  0  0
   14.2853   -4.4902   20.0919 H   0  0  0  0  0  0  0  0  0  0  0  0
   13.2687   -4.5187   17.8524 H   0  0  0  0  0  0  0  0  0  0  0  0
   12.0874   -4.2949   16.0175 H   0  0  0  0  0  0  0  0  0  0  0  0
   11.3738   -2.7718   16.5584 H   0  0  0  0  0  0  0  0  0  0  0  0
   11.8727   -3.6073   13.7277 H   0  0  0  0  0  0  0  0  0  0  0  0
   10.5221   -2.7474   14.4501 H   0  0  0  0  0  0  0  0  0  0  0  0
   12.5522   -1.4675   13.0841 H   0  0  0  0  0  0  0  0  0  0  0  0
   11.6901   -0.7178   14.4078 H   0  0  0  0  0  0  0  0  0  0  0  0
   13.8032   -0.5737   15.3305 H   0  0  0  0  0  0  0  0  0  0  0  0
   14.4448   -1.9030   14.3549 H   0  0  0  0  0  0  0  0  0  0  0  0
   14.7557   -0.6073   17.1181 H   0  0  0  0  0  0  0  0  0  0  0  0
   17.2703    1.3982   15.6828 H   0  0  0  0  0  0  0  0  0  0  0  0
   17.4706   -0.3137   13.8356 H   0  0  0  0  0  0  0  0  0  0  0  0
   17.4004   -2.9607   13.3471 H   0  0  0  0  0  0  0  0  0  0  0  0
   17.1693   -5.1023   15.0595 H   0  0  0  0  0  0  0  0  0  0  0  0
  1  2  1  0
  2  3  1  0
  3  4  1  0
  4  5  2  0
  5  6  1  0
  6  7  2  0
  7  8  1  0
  8  9  1  0
  9 10  1  0
 10 11  1  0
 11 12  1  0
 12 13  1  0
  8 14  2  0
  2 15  1  0
 15 16  1  0
 16 17  2  0
 17 18  1  0
 18 19  1  0
 19 20  2  0
 20 21  1  0
 21 22  2  0
 22 23  1  0
 14  4  1  0
 23 15  2  0
 13  9  1  0
 22 18  1  0
  1 24  1  0
  1 25  1  0
  1 26  1  0
  3 27  1  0
  3 28  1  0
  5 29  1  0
  6 30  1  0
  7 31  1  0
 10 32  1  0
 10 33  1  0
 11 34  1  0
 11 35  1  0
 12 36  1  0
 12 37  1  0
 13 38  1  0
 13 39  1  0
 14 40  1  0
 16 41  1  0
 17 42  1  0
 19 43  1  0
 20 44  1  0
M  END
>  <Energy>  (1027) 
43.739641349087812

>  <compound_id>  (1027) 
8834

>  <target_id>  (1027) 
1

>  <reference_id>  (1027) 
124

>  <inspiration_ids>  (1027) 
[124, 106]

>  <energy_score>  (1027) 
-6.9164224379441634

>  <distance_score>  (1027) 
1.873959648198999

>  <path>  (1027) 
/opt/xchem-fragalysis-2/maxwin/BulkDock/SCRATCH/511014/C8834-P124/C8834-P124.minimised.mol

>  <scratch_subdir>  (1027) 
/opt/xchem-fragalysis-2/maxwin/BulkDock/SCRATCH/511014/C8834-P124

>  <fragmenstein_runtime>  (1027) 
31.89445209503174

>  <fragmenstein_outcome>  (1027) 
too moved

>  <fragmenstein_mode>  (1027) 
expansion

>  <fragmenstein_error>  (1027) 


$$$$
C8834-P106
     RDKit          3D

 44 47  0  0  0  0  0  0  0  0999 V2000
   16.1231    2.1940   18.0281 C   0  0  0  0  0  0  0  0  0  0  0  0
   16.4902    0.8085   18.2655 N   0  0  0  0  0  0  0  0  0  0  0  0
   15.9124    0.2193   19.5064 C   0  0  0  0  0  0  0  0  0  0  0  0
   15.0011   -0.9505   19.2066 C   0  0  0  0  0  0  0  0  0  0  0  0
   15.1254   -2.1521   19.9076 C   0  0  0  0  0  0  0  0  0  0  0  0
   14.4692   -3.2860   19.4448 C   0  0  0  0  0  0  0  0  0  0  0  0
   13.6921   -3.2207   18.2835 C   0  0  0  0  0  0  0  0  0  0  0  0
   13.5061   -2.0191   17.5799 C   0  0  0  0  0  0  0  0  0  0  0  0
   12.6561   -1.9152   16.5035 N   0  0  0  0  0  0  0  0  0  0  0  0
   12.2467   -3.0951   15.7578 C   0  0  0  0  0  0  0  0  0  0  0  0
   11.8897   -2.5519   14.3828 C   0  0  0  0  0  0  0  0  0  0  0  0
   11.4740   -1.1199   14.6644 C   0  0  0  0  0  0  0  0  0  0  0  0
   12.4900   -0.7027   15.7121 C   0  0  0  0  0  0  0  0  0  0  0  0
   14.1447   -0.8887   18.0939 C   0  0  0  0  0  0  0  0  0  0  0  0
   16.8983   -0.0590   17.2360 C   0  0  0  0  0  0  0  0  0  0  0  0
   16.9580    0.4037   15.7897 C   0  0  0  0  0  0  0  0  0  0  0  0
   17.0632   -0.5474   14.8495 C   0  0  0  0  0  0  0  0  0  0  0  0
   17.1174   -1.8667   15.2418 N   0  0  0  0  0  0  0  0  0  0  0  0
   17.1010   -3.0030   14.4904 C   0  0  0  0  0  0  0  0  0  0  0  0
   16.9890   -4.0168   15.4031 C   0  0  0  0  0  0  0  0  0  0  0  0
   17.0465   -3.5450   16.6789 N   0  0  0  0  0  0  0  0  0  0  0  0
   17.1519   -2.2384   16.5714 C   0  0  0  0  0  0  0  0  0  0  0  0
   17.1686   -1.3053   17.5564 N   0  0  0  0  0  0  0  0  0  0  0  0
   16.0208    2.7480   18.9676 H   0  0  0  0  0  0  0  0  0  0  0  0
   15.1746    2.2594   17.4857 H   0  0  0  0  0  0  0  0  0  0  0  0
   16.8988    2.7090   17.4525 H   0  0  0  0  0  0  0  0  0  0  0  0
   16.7459   -0.0985   20.1444 H   0  0  0  0  0  0  0  0  0  0  0  0
   15.3394    0.9619   20.0747 H   0  0  0  0  0  0  0  0  0  0  0  0
   15.7908   -2.2327   20.7622 H   0  0  0  0  0  0  0  0  0  0  0  0
   14.5840   -4.2315   19.9657 H   0  0  0  0  0  0  0  0  0  0  0  0
   13.1905   -4.1302   17.9677 H   0  0  0  0  0  0  0  0  0  0  0  0
   13.0409   -3.8397   15.6890 H   0  0  0  0  0  0  0  0  0  0  0  0
   11.3742   -3.5577   16.2255 H   0  0  0  0  0  0  0  0  0  0  0  0
   12.7707   -2.5460   13.7309 H   0  0  0  0  0  0  0  0  0  0  0  0
   11.1207   -3.1536   13.9007 H   0  0  0  0  0  0  0  0  0  0  0  0
   11.5060   -0.4808   13.7780 H   0  0  0  0  0  0  0  0  0  0  0  0
   10.4607   -1.0928   15.0833 H   0  0  0  0  0  0  0  0  0  0  0  0
   12.1107    0.1386   16.2993 H   0  0  0  0  0  0  0  0  0  0  0  0
   13.4363   -0.4181   15.2361 H   0  0  0  0  0  0  0  0  0  0  0  0
   14.0380    0.0636   17.5875 H   0  0  0  0  0  0  0  0  0  0  0  0
   16.8897    1.4532   15.5518 H   0  0  0  0  0  0  0  0  0  0  0  0
   17.0777   -0.3362   13.7892 H   0  0  0  0  0  0  0  0  0  0  0  0
   17.0946   -2.9931   13.4113 H   0  0  0  0  0  0  0  0  0  0  0  0
   16.8898   -5.0748   15.2011 H   0  0  0  0  0  0  0  0  0  0  0  0
  1  2  1  0
  2  3  1  0
  3  4  1  0
  4  5  2  0
  5  6  1  0
  6  7  2  0
  7  8  1  0
  8  9  1  0
  9 10  1  0
 10 11  1  0
 11 12  1  0
 12 13  1  0
  8 14  2  0
  2 15  1  0
 15 16  1  0
 16 17  2  0
 17 18  1  0
 18 19  1  0
 19 20  2  0
 20 21  1  0
 21 22  2  0
 22 23  1  0
 14  4  1  0
 23 15  2  0
 13  9  1  0
 22 18  1  0
  1 24  1  0
  1 25  1  0
  1 26  1  0
  3 27  1  0
  3 28  1  0
  5 29  1  0
  6 30  1  0
  7 31  1  0
 10 32  1  0
 10 33  1  0
 11 34  1  0
 11 35  1  0
 12 36  1  0
 12 37  1  0
 13 38  1  0
 13 39  1  0
 14 40  1  0
 16 41  1  0
 17 42  1  0
 19 43  1  0
 20 44  1  0
M  END
>  <Energy>  (1028) 
33.367420050063139

>  <compound_id>  (1028) 
8834

>  <target_id>  (1028) 
1

>  <reference_id>  (1028) 
106

>  <inspiration_ids>  (1028) 
[124, 106]

>  <energy_score>  (1028) 
-17.288643736969362

>  <distance_score>  (1028) 
1.66786909476232

>  <path>  (1028) 
/opt/xchem-fragalysis-2/maxwin/BulkDock/SCRATCH/511014/C8834-P106/C8834-P106.minimised.mol

>  <scratch_subdir>  (1028) 
/opt/xchem-fragalysis-2/maxwin/BulkDock/SCRATCH/511014/C8834-P106

>  <fragmenstein_runtime>  (1028) 
32.63003921508789

>  <fragmenstein_outcome>  (1028) 
too moved

>  <fragmenstein_mode>  (1028) 
expansion

>  <fragmenstein_error>  (1028) 


$$$$
C8835-P124
     RDKit          3D

 41 43  0  0  0  0  0  0  0  0999 V2000
   19.5674   -2.6018   13.5610 C   0  0  0  0  0  0  0  0  0  0  0  0
   19.0919   -2.6363   15.0081 C   0  0  0  0  0  0  0  0  0  0  0  0
   19.5084   -3.9697   15.6450 C   0  0  0  0  0  0  0  0  0  0  0  0
   19.6249   -1.4278   15.7741 C   0  0  0  0  0  0  0  0  0  0  0  0
   17.6719   -2.5644   14.8468 O   0  0  0  0  0  0  0  0  0  0  0  0
   16.8741   -2.8857   15.8868 C   0  0  0  0  0  0  0  0  0  0  0  0
   17.1802   -2.8703   17.0683 O   0  0  0  0  0  0  0  0  0  0  0  0
   15.5772   -3.3635   15.3074 C   0  0  0  0  0  0  0  0  0  0  0  0
   14.8480   -2.3014   14.4379 C   0  0  0  0  0  0  0  0  0  0  0  0
   13.4755   -2.1679   15.1142 C   0  0  0  0  0  0  0  0  0  0  0  0
   13.7870   -2.5329   16.5270 N   0  0  0  0  0  0  0  0  0  0  0  0
   14.4445   -1.5326   17.2498 C   0  0  0  0  0  0  0  0  0  0  0  0
   14.7356   -1.7045   18.7205 C   0  0  0  0  0  0  0  0  0  0  0  0
   15.1562   -0.6081   19.3626 C   0  0  0  0  0  0  0  0  0  0  0  0
   15.3906    0.5406   18.6454 N   0  0  0  0  0  0  0  0  0  0  0  0
   15.7835    1.7697   19.0724 C   0  0  0  0  0  0  0  0  0  0  0  0
   15.8961    2.5134   17.9256 C   0  0  0  0  0  0  0  0  0  0  0  0
   15.5781    1.7818   16.8225 N   0  0  0  0  0  0  0  0  0  0  0  0
   15.2498    0.6014   17.2761 C   0  0  0  0  0  0  0  0  0  0  0  0
   14.7618   -0.4435   16.5931 N   0  0  0  0  0  0  0  0  0  0  0  0
   14.5895   -3.7431   16.4059 C   0  0  0  0  0  0  0  0  0  0  0  0
   19.2348   -1.6866   13.0562 H   0  0  0  0  0  0  0  0  0  0  0  0
   19.1535   -3.4392   12.9859 H   0  0  0  0  0  0  0  0  0  0  0  0
   20.6596   -2.6486   13.4941 H   0  0  0  0  0  0  0  0  0  0  0  0
   18.9866   -4.8120   15.1765 H   0  0  0  0  0  0  0  0  0  0  0  0
   19.2852   -4.0073   16.7154 H   0  0  0  0  0  0  0  0  0  0  0  0
   20.5872   -4.1312   15.5414 H   0  0  0  0  0  0  0  0  0  0  0  0
   20.7198   -1.4109   15.7803 H   0  0  0  0  0  0  0  0  0  0  0  0
   19.2831   -1.4277   16.8140 H   0  0  0  0  0  0  0  0  0  0  0  0
   19.2638   -0.4937   15.3293 H   0  0  0  0  0  0  0  0  0  0  0  0
   15.8748   -4.2555   14.7569 H   0  0  0  0  0  0  0  0  0  0  0  0
   14.7614   -2.5742   13.3820 H   0  0  0  0  0  0  0  0  0  0  0  0
   15.3877   -1.3480   14.4336 H   0  0  0  0  0  0  0  0  0  0  0  0
   13.0393   -1.1703   14.9988 H   0  0  0  0  0  0  0  0  0  0  0  0
   12.7476   -2.8806   14.7113 H   0  0  0  0  0  0  0  0  0  0  0  0
   14.5373   -2.6491   19.2061 H   0  0  0  0  0  0  0  0  0  0  0  0
   15.3413   -0.5891   20.4288 H   0  0  0  0  0  0  0  0  0  0  0  0
   15.9584    2.0036   20.1120 H   0  0  0  0  0  0  0  0  0  0  0  0
   16.1993    3.5491   17.8395 H   0  0  0  0  0  0  0  0  0  0  0  0
   15.0525   -4.0531   17.3476 H   0  0  0  0  0  0  0  0  0  0  0  0
   13.9287   -4.5559   16.0975 H   0  0  0  0  0  0  0  0  0  0  0  0
  1  2  1  0
  2  3  1  0
  2  4  1  0
  2  5  1  0
  5  6  1  0
  6  7  2  0
  6  8  1  0
  8  9  1  0
  9 10  1  0
 10 11  1  0
 11 12  1  0
 12 13  1  0
 13 14  2  0
 14 15  1  0
 15 16  1  0
 16 17  2  0
 17 18  1  0
 18 19  2  0
 19 20  1  0
 11 21  1  0
 21  8  1  0
 20 12  2  0
 19 15  1  0
  1 22  1  0
  1 23  1  0
  1 24  1  0
  3 25  1  0
  3 26  1  0
  3 27  1  0
  4 28  1  0
  4 29  1  0
  4 30  1  0
  8 31  1  0
  9 32  1  0
  9 33  1  0
 10 34  1  0
 10 35  1  0
 13 36  1  0
 14 37  1  0
 16 38  1  0
 17 39  1  0
 21 40  1  0
 21 41  1  0
M  END
>  <Energy>  (1029) 
9.3130888181642231

>  <compound_id>  (1029) 
8835

>  <target_id>  (1029) 
1

>  <reference_id>  (1029) 
124

>  <inspiration_ids>  (1029) 
[124, 106]

>  <energy_score>  (1029) 
-17.848287302810178

>  <distance_score>  (1029) 
3.13733855561784

>  <path>  (1029) 
/opt/xchem-fragalysis-2/maxwin/BulkDock/SCRATCH/511014/C8835-P124/C8835-P124.minimised.mol

>  <scratch_subdir>  (1029) 
/opt/xchem-fragalysis-2/maxwin/BulkDock/SCRATCH/511014/C8835-P124

>  <fragmenstein_runtime>  (1029) 
11.041861772537231

>  <fragmenstein_outcome>  (1029) 
too moved

>  <fragmenstein_mode>  (1029) 
expansion

>  <fragmenstein_error>  (1029) 


$$$$
C8835-P106
     RDKit          3D

 41 43  0  0  0  0  0  0  0  0999 V2000
   17.5995   -2.4645   14.3340 C   0  0  0  0  0  0  0  0  0  0  0  0
   16.9165   -2.9066   15.6349 C   0  0  0  0  0  0  0  0  0  0  0  0
   17.3842   -4.3295   15.9626 C   0  0  0  0  0  0  0  0  0  0  0  0
   17.2838   -1.9262   16.7485 C   0  0  0  0  0  0  0  0  0  0  0  0
   15.4996   -2.8366   15.3336 O   0  0  0  0  0  0  0  0  0  0  0  0
   14.5657   -3.2880   16.2081 C   0  0  0  0  0  0  0  0  0  0  0  0
   14.7937   -3.7803   17.3055 O   0  0  0  0  0  0  0  0  0  0  0  0
   13.1739   -3.2080   15.6080 C   0  0  0  0  0  0  0  0  0  0  0  0
   12.9428   -2.3190   14.3615 C   0  0  0  0  0  0  0  0  0  0  0  0
   11.5828   -1.6948   14.6203 C   0  0  0  0  0  0  0  0  0  0  0  0
   11.6426   -1.4674   16.0642 N   0  0  0  0  0  0  0  0  0  0  0  0
   12.4300   -0.3846   16.4494 C   0  0  0  0  0  0  0  0  0  0  0  0
   12.1746    1.0165   15.9437 C   0  0  0  0  0  0  0  0  0  0  0  0
   13.0375    1.9612   16.3518 C   0  0  0  0  0  0  0  0  0  0  0  0
   14.0828    1.6016   17.1836 N   0  0  0  0  0  0  0  0  0  0  0  0
   15.0957    2.3395   17.7220 C   0  0  0  0  0  0  0  0  0  0  0  0
   15.8420    1.4471   18.4567 C   0  0  0  0  0  0  0  0  0  0  0  0
   15.3212    0.1929   18.3903 N   0  0  0  0  0  0  0  0  0  0  0  0
   14.2631    0.3076   17.6229 C   0  0  0  0  0  0  0  0  0  0  0  0
   13.4206   -0.6647   17.2540 N   0  0  0  0  0  0  0  0  0  0  0  0
   12.1255   -2.7738   16.5903 C   0  0  0  0  0  0  0  0  0  0  0  0
   17.3353   -3.1306   13.5057 H   0  0  0  0  0  0  0  0  0  0  0  0
   18.6903   -2.4507   14.4312 H   0  0  0  0  0  0  0  0  0  0  0  0
   17.2673   -1.4618   14.0400 H   0  0  0  0  0  0  0  0  0  0  0  0
   17.0061   -5.0442   15.2236 H   0  0  0  0  0  0  0  0  0  0  0  0
   17.0236   -4.6653   16.9394 H   0  0  0  0  0  0  0  0  0  0  0  0
   18.4775   -4.3954   15.9832 H   0  0  0  0  0  0  0  0  0  0  0  0
   16.7924   -2.1847   17.6914 H   0  0  0  0  0  0  0  0  0  0  0  0
   16.9632   -0.9123   16.4881 H   0  0  0  0  0  0  0  0  0  0  0  0
   18.3643   -1.9087   16.9265 H   0  0  0  0  0  0  0  0  0  0  0  0
   12.9073   -4.2392   15.4242 H   0  0  0  0  0  0  0  0  0  0  0  0
   12.9160   -2.8562   13.4122 H   0  0  0  0  0  0  0  0  0  0  0  0
   13.7098   -1.5410   14.2729 H   0  0  0  0  0  0  0  0  0  0  0  0
   10.7875   -2.4167   14.4151 H   0  0  0  0  0  0  0  0  0  0  0  0
   11.4135   -0.7906   14.0298 H   0  0  0  0  0  0  0  0  0  0  0  0
   11.3222    1.2077   15.3087 H   0  0  0  0  0  0  0  0  0  0  0  0
   12.9567    3.0022   16.0698 H   0  0  0  0  0  0  0  0  0  0  0  0
   15.1990    3.4002   17.5489 H   0  0  0  0  0  0  0  0  0  0  0  0
   16.7325    1.6535   19.0365 H   0  0  0  0  0  0  0  0  0  0  0  0
   11.2972   -3.4864   16.5271 H   0  0  0  0  0  0  0  0  0  0  0  0
   12.4641   -2.7635   17.6284 H   0  0  0  0  0  0  0  0  0  0  0  0
  1  2  1  0
  2  3  1  0
  2  4  1  0
  2  5  1  0
  5  6  1  0
  6  7  2  0
  6  8  1  0
  8  9  1  0
  9 10  1  0
 10 11  1  0
 11 12  1  0
 12 13  1  0
 13 14  2  0
 14 15  1  0
 15 16  1  0
 16 17  2  0
 17 18  1  0
 18 19  2  0
 19 20  1  0
 11 21  1  0
 21  8  1  0
 20 12  2  0
 19 15  1  0
  1 22  1  0
  1 23  1  0
  1 24  1  0
  3 25  1  0
  3 26  1  0
  3 27  1  0
  4 28  1  0
  4 29  1  0
  4 30  1  0
  8 31  1  0
  9 32  1  0
  9 33  1  0
 10 34  1  0
 10 35  1  0
 13 36  1  0
 14 37  1  0
 16 38  1  0
 17 39  1  0
 21 40  1  0
 21 41  1  0
M  END
>  <Energy>  (1030) 
6.8656133405600093

>  <compound_id>  (1030) 
8835

>  <target_id>  (1030) 
1

>  <reference_id>  (1030) 
106

>  <inspiration_ids>  (1030) 
[124, 106]

>  <energy_score>  (1030) 
-20.295762780415032

>  <distance_score>  (1030) 
2.4086671265375896

>  <path>  (1030) 
/opt/xchem-fragalysis-2/maxwin/BulkDock/SCRATCH/511014/C8835-P106/C8835-P106.minimised.mol

>  <scratch_subdir>  (1030) 
/opt/xchem-fragalysis-2/maxwin/BulkDock/SCRATCH/511014/C8835-P106

>  <fragmenstein_runtime>  (1030) 
11.330586910247803

>  <fragmenstein_outcome>  (1030) 
too moved

>  <fragmenstein_mode>  (1030) 
expansion

>  <fragmenstein_error>  (1030) 


$$$$
C8836-P124
     RDKit          3D

 43 45  0  0  0  0  0  0  0  0999 V2000
   17.3964    2.3642   14.5650 C   0  0  0  0  0  0  0  0  0  0  0  0
   16.3900    1.2392   14.8058 C   0  0  0  0  0  0  0  0  0  0  0  0
   15.0059    1.6826   14.9445 N   0  0  0  0  0  0  0  0  0  0  0  0
   14.0087    0.6153   15.0970 C   0  0  0  0  0  0  0  0  0  0  0  0
   13.8003   -0.4668   14.0029 C   0  0  0  0  0  0  0  0  0  0  0  0
   12.5239   -1.3053   14.1903 C   0  0  0  0  0  0  0  0  0  0  0  0
   12.9077   -2.4162   15.1656 C   0  0  0  0  0  0  0  0  0  0  0  0
   14.3902   -2.4963   15.0945 N   0  0  0  0  0  0  0  0  0  0  0  0
   15.1606   -2.3616   16.2392 C   0  0  0  0  0  0  0  0  0  0  0  0
   16.6453   -2.6340   16.1690 C   0  0  0  0  0  0  0  0  0  0  0  0
   17.3829   -2.0718   17.1353 C   0  0  0  0  0  0  0  0  0  0  0  0
   16.7389   -1.3611   18.1434 N   0  0  0  0  0  0  0  0  0  0  0  0
   17.2297   -0.6215   19.1844 C   0  0  0  0  0  0  0  0  0  0  0  0
   16.1227   -0.0837   19.7974 C   0  0  0  0  0  0  0  0  0  0  0  0
   14.9779   -0.4881   19.1838 N   0  0  0  0  0  0  0  0  0  0  0  0
   15.3622   -1.2935   18.2248 C   0  0  0  0  0  0  0  0  0  0  0  0
   14.5793   -1.8778   17.2995 N   0  0  0  0  0  0  0  0  0  0  0  0
   14.8056   -1.6117   13.9917 C   0  0  0  0  0  0  0  0  0  0  0  0
   14.7982    2.7815   15.9429 C   0  0  0  0  0  0  0  0  0  0  0  0
   15.3465    2.7556   17.3874 C   0  0  0  0  0  0  0  0  0  0  0  0
   14.4815    2.1964   18.2524 F   0  0  0  0  0  0  0  0  0  0  0  0
   16.5313    2.1213   17.4986 F   0  0  0  0  0  0  0  0  0  0  0  0
   15.5471    4.0308   17.8156 F   0  0  0  0  0  0  0  0  0  0  0  0
   18.3808    1.9386   14.3427 H   0  0  0  0  0  0  0  0  0  0  0  0
   17.0993    2.9796   13.7091 H   0  0  0  0  0  0  0  0  0  0  0  0
   17.5122    3.0156   15.4352 H   0  0  0  0  0  0  0  0  0  0  0  0
   16.4634    0.6115   13.9146 H   0  0  0  0  0  0  0  0  0  0  0  0
   16.7049    0.6376   15.6638 H   0  0  0  0  0  0  0  0  0  0  0  0
   14.1280    0.1735   16.0780 H   0  0  0  0  0  0  0  0  0  0  0  0
   13.0913    1.1741   15.0683 H   0  0  0  0  0  0  0  0  0  0  0  0
   13.7775    0.0322   13.0267 H   0  0  0  0  0  0  0  0  0  0  0  0
   12.2687   -1.7730   13.2326 H   0  0  0  0  0  0  0  0  0  0  0  0
   11.6375   -0.7568   14.4900 H   0  0  0  0  0  0  0  0  0  0  0  0
   12.5240   -2.2322   16.1673 H   0  0  0  0  0  0  0  0  0  0  0  0
   12.4544   -3.3588   14.8504 H   0  0  0  0  0  0  0  0  0  0  0  0
   17.0382   -3.2038   15.3389 H   0  0  0  0  0  0  0  0  0  0  0  0
   18.4614   -2.1362   17.1779 H   0  0  0  0  0  0  0  0  0  0  0  0
   18.2870   -0.5214   19.3777 H   0  0  0  0  0  0  0  0  0  0  0  0
   16.0970    0.5807   20.6516 H   0  0  0  0  0  0  0  0  0  0  0  0
   14.7245   -2.1714   13.0503 H   0  0  0  0  0  0  0  0  0  0  0  0
   15.8458   -1.2976   14.0620 H   0  0  0  0  0  0  0  0  0  0  0  0
   15.2281    3.6767   15.4736 H   0  0  0  0  0  0  0  0  0  0  0  0
   13.7285    3.0238   15.9964 H   0  0  0  0  0  0  0  0  0  0  0  0
  1  2  1  0
  2  3  1  0
  3  4  1  0
  4  5  1  0
  5  6  1  0
  6  7  1  0
  7  8  1  0
  8  9  1  0
  9 10  1  0
 10 11  2  0
 11 12  1  0
 12 13  1  0
 13 14  2  0
 14 15  1  0
 15 16  2  0
 16 17  1  0
  8 18  1  0
  3 19  1  0
 19 20  1  0
 20 21  1  0
 20 22  1  0
 20 23  1  0
 18  5  1  0
 17  9  2  0
 16 12  1  0
  1 24  1  0
  1 25  1  0
  1 26  1  0
  2 27  1  0
  2 28  1  0
  4 29  1  0
  4 30  1  0
  5 31  1  0
  6 32  1  0
  6 33  1  0
  7 34  1  0
  7 35  1  0
 10 36  1  0
 11 37  1  0
 13 38  1  0
 14 39  1  0
 18 40  1  0
 18 41  1  0
 19 42  1  0
 19 43  1  0
M  END
>  <Energy>  (1031) 
91.693066309418114

>  <compound_id>  (1031) 
8836

>  <target_id>  (1031) 
1

>  <reference_id>  (1031) 
124

>  <inspiration_ids>  (1031) 
[124, 106]

>  <energy_score>  (1031) 
-26.206492024180505

>  <distance_score>  (1031) 
2.1833243608175485

>  <path>  (1031) 
/opt/xchem-fragalysis-2/maxwin/BulkDock/SCRATCH/511014/C8836-P124/C8836-P124.minimised.mol

>  <scratch_subdir>  (1031) 
/opt/xchem-fragalysis-2/maxwin/BulkDock/SCRATCH/511014/C8836-P124

>  <fragmenstein_runtime>  (1031) 
8.326656818389893

>  <fragmenstein_outcome>  (1031) 
too moved

>  <fragmenstein_mode>  (1031) 
expansion

>  <fragmenstein_error>  (1031) 


$$$$
C8836-P106
     RDKit          3D

 43 45  0  0  0  0  0  0  0  0999 V2000
   12.4175    4.1824   14.6458 C   0  0  0  0  0  0  0  0  0  0  0  0
   12.5746    3.6227   16.0559 C   0  0  0  0  0  0  0  0  0  0  0  0
   13.1114    2.2512   16.0637 N   0  0  0  0  0  0  0  0  0  0  0  0
   12.1188    1.2503   15.6195 C   0  0  0  0  0  0  0  0  0  0  0  0
   12.8259   -0.0473   15.2797 C   0  0  0  0  0  0  0  0  0  0  0  0
   12.7317   -0.5539   13.8500 C   0  0  0  0  0  0  0  0  0  0  0  0
   13.2363   -2.0082   13.9768 C   0  0  0  0  0  0  0  0  0  0  0  0
   13.3109   -2.2836   15.4345 N   0  0  0  0  0  0  0  0  0  0  0  0
   14.5526   -2.2723   16.1111 C   0  0  0  0  0  0  0  0  0  0  0  0
   15.8795   -2.6193   15.4684 C   0  0  0  0  0  0  0  0  0  0  0  0
   16.9790   -2.2027   16.1175 C   0  0  0  0  0  0  0  0  0  0  0  0
   16.8356   -1.5479   17.3363 N   0  0  0  0  0  0  0  0  0  0  0  0
   17.7526   -0.9555   18.1605 C   0  0  0  0  0  0  0  0  0  0  0  0
   17.0192   -0.4139   19.1883 C   0  0  0  0  0  0  0  0  0  0  0  0
   15.6932   -0.6698   19.0306 N   0  0  0  0  0  0  0  0  0  0  0  0
   15.6082   -1.3909   17.9399 C   0  0  0  0  0  0  0  0  0  0  0  0
   14.4884   -1.8240   17.3448 N   0  0  0  0  0  0  0  0  0  0  0  0
   12.3438   -1.3031   15.9991 C   0  0  0  0  0  0  0  0  0  0  0  0
   13.7077    1.9486   17.4049 C   0  0  0  0  0  0  0  0  0  0  0  0
   15.2112    2.2674   17.5683 C   0  0  0  0  0  0  0  0  0  0  0  0
   15.9855    1.4516   16.8160 F   0  0  0  0  0  0  0  0  0  0  0  0
   15.5156    3.5313   17.2021 F   0  0  0  0  0  0  0  0  0  0  0  0
   15.5971    2.1541   18.8596 F   0  0  0  0  0  0  0  0  0  0  0  0
   12.1460    5.2423   14.6955 H   0  0  0  0  0  0  0  0  0  0  0  0
   13.3546    4.1040   14.0844 H   0  0  0  0  0  0  0  0  0  0  0  0
   11.6321    3.6717   14.0817 H   0  0  0  0  0  0  0  0  0  0  0  0
   13.2639    4.2949   16.5813 H   0  0  0  0  0  0  0  0  0  0  0  0
   11.6171    3.6725   16.5880 H   0  0  0  0  0  0  0  0  0  0  0  0
   11.3364    1.1143   16.3679 H   0  0  0  0  0  0  0  0  0  0  0  0
   11.6146    1.6030   14.7140 H   0  0  0  0  0  0  0  0  0  0  0  0
   13.9004    0.0976   15.4653 H   0  0  0  0  0  0  0  0  0  0  0  0
   13.3454    0.0297   13.1567 H   0  0  0  0  0  0  0  0  0  0  0  0
   11.6988   -0.5364   13.4859 H   0  0  0  0  0  0  0  0  0  0  0  0
   12.5161   -2.6883   13.5096 H   0  0  0  0  0  0  0  0  0  0  0  0
   14.1960   -2.1206   13.4657 H   0  0  0  0  0  0  0  0  0  0  0  0
   15.9076   -3.1362   14.5216 H   0  0  0  0  0  0  0  0  0  0  0  0
   17.9824   -2.3439   15.7406 H   0  0  0  0  0  0  0  0  0  0  0  0
   18.8091   -0.9473   17.9397 H   0  0  0  0  0  0  0  0  0  0  0  0
   17.3836    0.1593   20.0311 H   0  0  0  0  0  0  0  0  0  0  0  0
   12.3587   -1.2082   17.0826 H   0  0  0  0  0  0  0  0  0  0  0  0
   11.3190   -1.5803   15.7177 H   0  0  0  0  0  0  0  0  0  0  0  0
   13.1473    2.4747   18.1877 H   0  0  0  0  0  0  0  0  0  0  0  0
   13.5910    0.8871   17.6419 H   0  0  0  0  0  0  0  0  0  0  0  0
  1  2  1  0
  2  3  1  0
  3  4  1  0
  4  5  1  0
  5  6  1  0
  6  7  1  0
  7  8  1  0
  8  9  1  0
  9 10  1  0
 10 11  2  0
 11 12  1  0
 12 13  1  0
 13 14  2  0
 14 15  1  0
 15 16  2  0
 16 17  1  0
  8 18  1  0
  3 19  1  0
 19 20  1  0
 20 21  1  0
 20 22  1  0
 20 23  1  0
 18  5  1  0
 17  9  2  0
 16 12  1  0
  1 24  1  0
  1 25  1  0
  1 26  1  0
  2 27  1  0
  2 28  1  0
  4 29  1  0
  4 30  1  0
  5 31  1  0
  6 32  1  0
  6 33  1  0
  7 34  1  0
  7 35  1  0
 10 36  1  0
 11 37  1  0
 13 38  1  0
 14 39  1  0
 18 40  1  0
 18 41  1  0
 19 42  1  0
 19 43  1  0
M  END
>  <Energy>  (1032) 
96.269152724642595

>  <compound_id>  (1032) 
8836

>  <target_id>  (1032) 
1

>  <reference_id>  (1032) 
106

>  <inspiration_ids>  (1032) 
[124, 106]

>  <energy_score>  (1032) 
-21.63040560895581

>  <distance_score>  (1032) 
2.4005430775364043

>  <path>  (1032) 
/opt/xchem-fragalysis-2/maxwin/BulkDock/SCRATCH/511014/C8836-P106/C8836-P106.minimised.mol

>  <scratch_subdir>  (1032) 
/opt/xchem-fragalysis-2/maxwin/BulkDock/SCRATCH/511014/C8836-P106

>  <fragmenstein_runtime>  (1032) 
8.379645347595215

>  <fragmenstein_outcome>  (1032) 
too moved

>  <fragmenstein_mode>  (1032) 
expansion

>  <fragmenstein_error>  (1032) 


$$$$
C8838-P124
     RDKit          3D

 36 38  0  0  0  0  0  0  0  0999 V2000
   19.1052   -6.2607   16.3204 C   0  0  0  0  0  0  0  0  0  0  0  0
   19.1504   -4.8457   16.7060 N   0  0  0  0  0  0  0  0  0  0  0  0
   19.6344   -4.7406   18.0844 C   0  0  0  0  0  0  0  0  0  0  0  0
   17.8265   -4.2293   16.5660 C   0  0  0  0  0  0  0  0  0  0  0  0
   17.3712   -4.1537   15.1419 C   0  0  0  0  0  0  0  0  0  0  0  0
   17.1880   -2.6650   15.0247 C   0  0  0  0  0  0  0  0  0  0  0  0
   16.5778   -2.0686   16.2627 N   0  0  0  0  0  0  0  0  0  0  0  0
   15.1952   -2.3770   16.3276 C   0  0  0  0  0  0  0  0  0  0  0  0
   14.6242   -3.3020   16.8359 O   0  0  0  0  0  0  0  0  0  0  0  0
   14.3858   -1.3692   15.5103 C   0  0  0  0  0  0  0  0  0  0  0  0
   13.1485   -1.9089   14.8613 C   0  0  0  0  0  0  0  0  0  0  0  0
   12.5533   -1.0673   14.0088 C   0  0  0  0  0  0  0  0  0  0  0  0
   13.0791    0.2048   13.8301 N   0  0  0  0  0  0  0  0  0  0  0  0
   12.6603    1.2319   13.0287 C   0  0  0  0  0  0  0  0  0  0  0  0
   13.5086    2.2761   13.3068 C   0  0  0  0  0  0  0  0  0  0  0  0
   14.4547    1.9116   14.2247 N   0  0  0  0  0  0  0  0  0  0  0  0
   14.1858    0.6615   14.5387 C   0  0  0  0  0  0  0  0  0  0  0  0
   14.8492   -0.1589   15.3941 N   0  0  0  0  0  0  0  0  0  0  0  0
   17.7574   -2.7325   16.8969 C   0  0  0  0  0  0  0  0  0  0  0  0
   18.8291   -6.3912   15.2695 H   0  0  0  0  0  0  0  0  0  0  0  0
   20.0962   -6.7169   16.4281 H   0  0  0  0  0  0  0  0  0  0  0  0
   18.3990   -6.8328   16.9339 H   0  0  0  0  0  0  0  0  0  0  0  0
   19.7798   -3.6952   18.3755 H   0  0  0  0  0  0  0  0  0  0  0  0
   18.9497   -5.2089   18.8010 H   0  0  0  0  0  0  0  0  0  0  0  0
   20.6153   -5.2195   18.1854 H   0  0  0  0  0  0  0  0  0  0  0  0
   17.0828   -4.7714   17.1669 H   0  0  0  0  0  0  0  0  0  0  0  0
   16.4315   -4.6983   15.0230 H   0  0  0  0  0  0  0  0  0  0  0  0
   18.0779   -4.5111   14.3873 H   0  0  0  0  0  0  0  0  0  0  0  0
   18.1065   -2.1258   14.7349 H   0  0  0  0  0  0  0  0  0  0  0  0
   16.5005   -2.4749   14.1882 H   0  0  0  0  0  0  0  0  0  0  0  0
   12.7933   -2.9043   15.0891 H   0  0  0  0  0  0  0  0  0  0  0  0
   11.6506   -1.3174   13.4702 H   0  0  0  0  0  0  0  0  0  0  0  0
   11.7951    1.1521   12.3898 H   0  0  0  0  0  0  0  0  0  0  0  0
   13.4859    3.2760   12.8940 H   0  0  0  0  0  0  0  0  0  0  0  0
   17.5921   -2.6317   17.9786 H   0  0  0  0  0  0  0  0  0  0  0  0
   18.6850   -2.1686   16.7000 H   0  0  0  0  0  0  0  0  0  0  0  0
  1  2  1  0
  2  3  1  0
  2  4  1  0
  4  5  1  0
  5  6  1  0
  6  7  1  0
  7  8  1  0
  8  9  2  0
  8 10  1  0
 10 11  1  0
 11 12  2  0
 12 13  1  0
 13 14  1  0
 14 15  2  0
 15 16  1  0
 16 17  2  0
 17 18  1  0
  7 19  1  0
 19  4  1  0
 18 10  2  0
 17 13  1  0
  1 20  1  0
  1 21  1  0
  1 22  1  0
  3 23  1  0
  3 24  1  0
  3 25  1  0
  4 26  1  0
  5 27  1  0
  5 28  1  0
  6 29  1  0
  6 30  1  0
 11 31  1  0
 12 32  1  0
 14 33  1  0
 15 34  1  0
 19 35  1  0
 19 36  1  0
M  END
>  <Energy>  (1033) 
142.46051270021707

>  <compound_id>  (1033) 
8838

>  <target_id>  (1033) 
1

>  <reference_id>  (1033) 
124

>  <inspiration_ids>  (1033) 
[124, 106]

>  <energy_score>  (1033) 
5.860257487972987

>  <distance_score>  (1033) 
3.7462382666303684

>  <path>  (1033) 
/opt/xchem-fragalysis-2/maxwin/BulkDock/SCRATCH/511014/C8838-P124/C8838-P124.minimised.mol

>  <scratch_subdir>  (1033) 
/opt/xchem-fragalysis-2/maxwin/BulkDock/SCRATCH/511014/C8838-P124

>  <fragmenstein_runtime>  (1033) 
4.316236734390259

>  <fragmenstein_outcome>  (1033) 
too moved

>  <fragmenstein_mode>  (1033) 
expansion

>  <fragmenstein_error>  (1033) 


$$$$
C8838-P106
     RDKit          3D

 36 38  0  0  0  0  0  0  0  0999 V2000
   18.8748   -4.2978   14.2434 C   0  0  0  0  0  0  0  0  0  0  0  0
   18.6830   -3.6324   15.5350 N   0  0  0  0  0  0  0  0  0  0  0  0
   19.1981   -4.4880   16.6030 C   0  0  0  0  0  0  0  0  0  0  0  0
   17.2700   -3.3729   15.7596 C   0  0  0  0  0  0  0  0  0  0  0  0
   16.6606   -2.5349   14.6840 C   0  0  0  0  0  0  0  0  0  0  0  0
   15.9857   -1.5526   15.5715 C   0  0  0  0  0  0  0  0  0  0  0  0
   15.4672   -2.1430   16.8518 N   0  0  0  0  0  0  0  0  0  0  0  0
   14.2655   -3.0063   16.6054 C   0  0  0  0  0  0  0  0  0  0  0  0
   14.1897   -4.1516   16.3726 O   0  0  0  0  0  0  0  0  0  0  0  0
   13.0321   -2.1321   16.5861 C   0  0  0  0  0  0  0  0  0  0  0  0
   11.8390   -2.7227   15.9140 C   0  0  0  0  0  0  0  0  0  0  0  0
   11.0062   -1.8091   15.4072 C   0  0  0  0  0  0  0  0  0  0  0  0
   11.2874   -0.4639   15.5764 N   0  0  0  0  0  0  0  0  0  0  0  0
   10.6333    0.6424   15.1252 C   0  0  0  0  0  0  0  0  0  0  0  0
   11.3713    1.7168   15.5633 C   0  0  0  0  0  0  0  0  0  0  0  0
   12.4446    1.3019   16.2867 N   0  0  0  0  0  0  0  0  0  0  0  0
   12.3685   -0.0085   16.3061 C   0  0  0  0  0  0  0  0  0  0  0  0
   13.2188   -0.8799   16.8744 N   0  0  0  0  0  0  0  0  0  0  0  0
   16.9085   -2.4983   16.9734 C   0  0  0  0  0  0  0  0  0  0  0  0
   18.6107   -3.6574   13.3965 H   0  0  0  0  0  0  0  0  0  0  0  0
   19.9338   -4.5446   14.1004 H   0  0  0  0  0  0  0  0  0  0  0  0
   18.3025   -5.2299   14.1676 H   0  0  0  0  0  0  0  0  0  0  0  0
   19.1395   -3.9870   17.5751 H   0  0  0  0  0  0  0  0  0  0  0  0
   18.6649   -5.4436   16.6716 H   0  0  0  0  0  0  0  0  0  0  0  0
   20.2607   -4.7040   16.4413 H   0  0  0  0  0  0  0  0  0  0  0  0
   16.7234   -4.3253   15.8223 H   0  0  0  0  0  0  0  0  0  0  0  0
   15.9631   -3.1062   14.0679 H   0  0  0  0  0  0  0  0  0  0  0  0
   17.3568   -2.0098   14.0223 H   0  0  0  0  0  0  0  0  0  0  0  0
   15.1147   -1.1733   15.0184 H   0  0  0  0  0  0  0  0  0  0  0  0
   16.5690   -0.6326   15.7572 H   0  0  0  0  0  0  0  0  0  0  0  0
   11.7273   -3.7932   15.8112 H   0  0  0  0  0  0  0  0  0  0  0  0
   10.1181   -2.0705   14.8484 H   0  0  0  0  0  0  0  0  0  0  0  0
    9.7374    0.5731   14.5236 H   0  0  0  0  0  0  0  0  0  0  0  0
   11.1810    2.7688   15.3935 H   0  0  0  0  0  0  0  0  0  0  0  0
   16.9682   -3.1222   17.8753 H   0  0  0  0  0  0  0  0  0  0  0  0
   17.5685   -1.6378   17.1757 H   0  0  0  0  0  0  0  0  0  0  0  0
  1  2  1  0
  2  3  1  0
  2  4  1  0
  4  5  1  0
  5  6  1  0
  6  7  1  0
  7  8  1  0
  8  9  2  0
  8 10  1  0
 10 11  1  0
 11 12  2  0
 12 13  1  0
 13 14  1  0
 14 15  2  0
 15 16  1  0
 16 17  2  0
 17 18  1  0
  7 19  1  0
 19  4  1  0
 18 10  2  0
 17 13  1  0
  1 20  1  0
  1 21  1  0
  1 22  1  0
  3 23  1  0
  3 24  1  0
  3 25  1  0
  4 26  1  0
  5 27  1  0
  5 28  1  0
  6 29  1  0
  6 30  1  0
 11 31  1  0
 12 32  1  0
 14 33  1  0
 15 34  1  0
 19 35  1  0
 19 36  1  0
M  END
>  <Energy>  (1034) 
164.27867635079392

>  <compound_id>  (1034) 
8838

>  <target_id>  (1034) 
1

>  <reference_id>  (1034) 
106

>  <inspiration_ids>  (1034) 
[124, 106]

>  <energy_score>  (1034) 
9.170513076861425

>  <distance_score>  (1034) 
3.0572307573345077

>  <path>  (1034) 
/opt/xchem-fragalysis-2/maxwin/BulkDock/SCRATCH/511014/C8838-P106/C8838-P106.minimised.mol

>  <scratch_subdir>  (1034) 
/opt/xchem-fragalysis-2/maxwin/BulkDock/SCRATCH/511014/C8838-P106

>  <fragmenstein_runtime>  (1034) 
3.44496750831604

>  <fragmenstein_outcome>  (1034) 
too moved

>  <fragmenstein_mode>  (1034) 
expansion

>  <fragmenstein_error>  (1034) 


$$$$
C8812-P124
     RDKit          3D

 40 43  0  0  0  0  0  0  0  0999 V2000
   14.4385    3.8597   14.7303 C   0  0  0  0  0  0  0  0  0  0  0  0
   13.9922    2.7240   15.6578 C   0  0  0  0  0  0  0  0  0  0  0  0
   14.9580    2.6313   16.8326 C   0  0  0  0  0  0  0  0  0  0  0  0
   13.8688    1.4285   14.9321 C   0  0  0  0  0  0  0  0  0  0  0  0
   13.8877    0.2103   15.4142 N   0  0  0  0  0  0  0  0  0  0  0  0
   13.5500   -0.5509   14.3291 C   0  0  0  0  0  0  0  0  0  0  0  0
   13.4599   -2.0525   14.3733 C   0  0  0  0  0  0  0  0  0  0  0  0
   12.0156   -2.5365   14.2617 C   0  0  0  0  0  0  0  0  0  0  0  0
   11.6526   -2.9633   15.6552 C   0  0  0  0  0  0  0  0  0  0  0  0
   12.9326   -3.4820   16.2590 C   0  0  0  0  0  0  0  0  0  0  0  0
   14.0218   -2.8193   15.5369 N   0  0  0  0  0  0  0  0  0  0  0  0
   15.0502   -2.2431   16.2556 C   0  0  0  0  0  0  0  0  0  0  0  0
   16.3921   -2.0435   15.5973 C   0  0  0  0  0  0  0  0  0  0  0  0
   17.2448   -1.2417   16.2484 C   0  0  0  0  0  0  0  0  0  0  0  0
   16.8465   -0.6811   17.4576 N   0  0  0  0  0  0  0  0  0  0  0  0
   17.4642    0.2280   18.2731 C   0  0  0  0  0  0  0  0  0  0  0  0
   16.5643    0.4812   19.2795 C   0  0  0  0  0  0  0  0  0  0  0  0
   15.4363   -0.2622   19.1254 N   0  0  0  0  0  0  0  0  0  0  0  0
   15.6377   -0.9899   18.0519 C   0  0  0  0  0  0  0  0  0  0  0  0
   14.7804   -1.8515   17.4729 N   0  0  0  0  0  0  0  0  0  0  0  0
   13.4286    0.1403   13.1843 N   0  0  0  0  0  0  0  0  0  0  0  0
   13.6022    1.4643   13.5916 O   0  0  0  0  0  0  0  0  0  0  0  0
   14.5308    4.8013   15.2826 H   0  0  0  0  0  0  0  0  0  0  0  0
   13.7131    4.0232   13.9255 H   0  0  0  0  0  0  0  0  0  0  0  0
   15.4079    3.6414   14.2676 H   0  0  0  0  0  0  0  0  0  0  0  0
   13.0052    2.9929   16.0508 H   0  0  0  0  0  0  0  0  0  0  0  0
   15.9686    2.3769   16.4934 H   0  0  0  0  0  0  0  0  0  0  0  0
   14.6519    1.8735   17.5536 H   0  0  0  0  0  0  0  0  0  0  0  0
   15.0150    3.5856   17.3676 H   0  0  0  0  0  0  0  0  0  0  0  0
   14.0053   -2.3772   13.4775 H   0  0  0  0  0  0  0  0  0  0  0  0
   11.9402   -3.3892   13.5820 H   0  0  0  0  0  0  0  0  0  0  0  0
   11.3385   -1.7644   13.8930 H   0  0  0  0  0  0  0  0  0  0  0  0
   10.8626   -3.7124   15.6557 H   0  0  0  0  0  0  0  0  0  0  0  0
   11.2920   -2.0988   16.2048 H   0  0  0  0  0  0  0  0  0  0  0  0
   12.9345   -3.3218   17.3407 H   0  0  0  0  0  0  0  0  0  0  0  0
   13.0221   -4.5611   16.1218 H   0  0  0  0  0  0  0  0  0  0  0  0
   16.5911   -2.5141   14.6454 H   0  0  0  0  0  0  0  0  0  0  0  0
   18.2247   -0.9826   15.8726 H   0  0  0  0  0  0  0  0  0  0  0  0
   18.4458    0.6227   18.0594 H   0  0  0  0  0  0  0  0  0  0  0  0
   16.6775    1.1640   20.1115 H   0  0  0  0  0  0  0  0  0  0  0  0
  1  2  1  0
  2  3  1  0
  2  4  1  0
  4  5  2  0
  5  6  1  0
  6  7  1  0
  7  8  1  0
  8  9  1  0
  9 10  1  0
 10 11  1  0
 11 12  1  0
 12 13  1  0
 13 14  2  0
 14 15  1  0
 15 16  1  0
 16 17  2  0
 17 18  1  0
 18 19  2  0
 19 20  1  0
  6 21  2  0
 21 22  1  0
 22  4  1  0
 11  7  1  0
 20 12  2  0
 19 15  1  0
  1 23  1  0
  1 24  1  0
  1 25  1  0
  2 26  1  0
  3 27  1  0
  3 28  1  0
  3 29  1  0
  7 30  1  0
  8 31  1  0
  8 32  1  0
  9 33  1  0
  9 34  1  0
 10 35  1  0
 10 36  1  0
 13 37  1  0
 14 38  1  0
 16 39  1  0
 17 40  1  0
M  END
>  <Energy>  (1035) 
41.778785056529586

>  <compound_id>  (1035) 
8812

>  <target_id>  (1035) 
1

>  <reference_id>  (1035) 
124

>  <inspiration_ids>  (1035) 
[124, 106]

>  <energy_score>  (1035) 
-31.08050072114966

>  <distance_score>  (1035) 
2.565877178539351

>  <path>  (1035) 
/opt/xchem-fragalysis-2/maxwin/BulkDock/SCRATCH/511014/C8812-P124/C8812-P124.minimised.mol

>  <scratch_subdir>  (1035) 
/opt/xchem-fragalysis-2/maxwin/BulkDock/SCRATCH/511014/C8812-P124

>  <fragmenstein_runtime>  (1035) 
12.925422430038452

>  <fragmenstein_outcome>  (1035) 
too moved

>  <fragmenstein_mode>  (1035) 
expansion

>  <fragmenstein_error>  (1035) 


$$$$
C8812-P106
     RDKit          3D

 40 43  0  0  0  0  0  0  0  0999 V2000
   13.3568    3.1199   14.4694 C   0  0  0  0  0  0  0  0  0  0  0  0
   12.8001    2.5428   15.7695 C   0  0  0  0  0  0  0  0  0  0  0  0
   13.8214    2.6658   16.8958 C   0  0  0  0  0  0  0  0  0  0  0  0
   12.3849    1.1351   15.5759 C   0  0  0  0  0  0  0  0  0  0  0  0
   13.1323    0.0781   15.3948 N   0  0  0  0  0  0  0  0  0  0  0  0
   12.2521   -0.9387   15.6565 C   0  0  0  0  0  0  0  0  0  0  0  0
   12.7442   -2.2249   16.2345 C   0  0  0  0  0  0  0  0  0  0  0  0
   11.9875   -3.4619   15.8308 C   0  0  0  0  0  0  0  0  0  0  0  0
   12.7610   -4.4830   16.6456 C   0  0  0  0  0  0  0  0  0  0  0  0
   14.2123   -4.0518   16.5558 C   0  0  0  0  0  0  0  0  0  0  0  0
   14.1616   -2.6795   16.0623 N   0  0  0  0  0  0  0  0  0  0  0  0
   15.1463   -1.8609   16.5578 C   0  0  0  0  0  0  0  0  0  0  0  0
   16.5078   -1.8902   15.9202 C   0  0  0  0  0  0  0  0  0  0  0  0
   17.3960   -1.0264   16.4276 C   0  0  0  0  0  0  0  0  0  0  0  0
   17.0024   -0.1964   17.4738 N   0  0  0  0  0  0  0  0  0  0  0  0
   17.6815    0.7808   18.1459 C   0  0  0  0  0  0  0  0  0  0  0  0
   16.7717    1.3169   19.0246 C   0  0  0  0  0  0  0  0  0  0  0  0
   15.5752    0.6809   18.9400 N   0  0  0  0  0  0  0  0  0  0  0  0
   15.7374   -0.2445   18.0265 C   0  0  0  0  0  0  0  0  0  0  0  0
   14.8275   -1.1255   17.5863 N   0  0  0  0  0  0  0  0  0  0  0  0
   10.9696   -0.5494   15.7853 N   0  0  0  0  0  0  0  0  0  0  0  0
   11.0581    0.8452   15.7140 O   0  0  0  0  0  0  0  0  0  0  0  0
   13.6313    4.1725   14.5973 H   0  0  0  0  0  0  0  0  0  0  0  0
   12.6144    3.0617   13.6653 H   0  0  0  0  0  0  0  0  0  0  0  0
   14.2484    2.5759   14.1365 H   0  0  0  0  0  0  0  0  0  0  0  0
   11.9196    3.1345   16.0512 H   0  0  0  0  0  0  0  0  0  0  0  0
   13.4410    2.2236   17.8230 H   0  0  0  0  0  0  0  0  0  0  0  0
   14.0517    3.7178   17.0957 H   0  0  0  0  0  0  0  0  0  0  0  0
   14.7590    2.1652   16.6347 H   0  0  0  0  0  0  0  0  0  0  0  0
   12.5847   -2.1000   17.3140 H   0  0  0  0  0  0  0  0  0  0  0  0
   12.0615   -3.6132   14.7512 H   0  0  0  0  0  0  0  0  0  0  0  0
   10.9334   -3.4361   16.0807 H   0  0  0  0  0  0  0  0  0  0  0  0
   12.6183   -5.5104   16.3317 H   0  0  0  0  0  0  0  0  0  0  0  0
   12.4555   -4.4263   17.6949 H   0  0  0  0  0  0  0  0  0  0  0  0
   14.6725   -4.1164   17.5507 H   0  0  0  0  0  0  0  0  0  0  0  0
   14.8105   -4.6797   15.8948 H   0  0  0  0  0  0  0  0  0  0  0  0
   16.6951   -2.5609   15.0945 H   0  0  0  0  0  0  0  0  0  0  0  0
   18.4062   -0.9225   16.0569 H   0  0  0  0  0  0  0  0  0  0  0  0
   18.7117    1.0222   17.9314 H   0  0  0  0  0  0  0  0  0  0  0  0
   16.9267    2.1318   19.7198 H   0  0  0  0  0  0  0  0  0  0  0  0
  1  2  1  0
  2  3  1  0
  2  4  1  0
  4  5  2  0
  5  6  1  0
  6  7  1  0
  7  8  1  0
  8  9  1  0
  9 10  1  0
 10 11  1  0
 11 12  1  0
 12 13  1  0
 13 14  2  0
 14 15  1  0
 15 16  1  0
 16 17  2  0
 17 18  1  0
 18 19  2  0
 19 20  1  0
  6 21  2  0
 21 22  1  0
 22  4  1  0
 11  7  1  0
 20 12  2  0
 19 15  1  0
  1 23  1  0
  1 24  1  0
  1 25  1  0
  2 26  1  0
  3 27  1  0
  3 28  1  0
  3 29  1  0
  7 30  1  0
  8 31  1  0
  8 32  1  0
  9 33  1  0
  9 34  1  0
 10 35  1  0
 10 36  1  0
 13 37  1  0
 14 38  1  0
 16 39  1  0
 17 40  1  0
M  END
>  <Energy>  (1036) 
45.76884713999813

>  <compound_id>  (1036) 
8812

>  <target_id>  (1036) 
1

>  <reference_id>  (1036) 
106

>  <inspiration_ids>  (1036) 
[124, 106]

>  <energy_score>  (1036) 
-27.090438637682155

>  <distance_score>  (1036) 
2.4624430011019864

>  <path>  (1036) 
/opt/xchem-fragalysis-2/maxwin/BulkDock/SCRATCH/511014/C8812-P106/C8812-P106.minimised.mol

>  <scratch_subdir>  (1036) 
/opt/xchem-fragalysis-2/maxwin/BulkDock/SCRATCH/511014/C8812-P106

>  <fragmenstein_runtime>  (1036) 
13.81325078010559

>  <fragmenstein_outcome>  (1036) 
too moved

>  <fragmenstein_mode>  (1036) 
expansion

>  <fragmenstein_error>  (1036) 


$$$$
C8839-P124
     RDKit          3D

 45 48  0  0  0  0  0  0  0  0999 V2000
   11.9109   -0.8087   13.7080 C   0  0  0  0  0  0  0  0  0  0  0  0
   13.3473   -0.3524   13.9606 C   0  0  0  0  0  0  0  0  0  0  0  0
   13.4904    1.1765   13.8544 C   0  0  0  0  0  0  0  0  0  0  0  0
   13.8844   -0.9242   15.2453 C   0  0  0  0  0  0  0  0  0  0  0  0
   13.5171   -2.2025   15.7126 C   0  0  0  0  0  0  0  0  0  0  0  0
   13.8631   -2.6213   17.0000 C   0  0  0  0  0  0  0  0  0  0  0  0
   14.5920   -1.7612   17.8290 C   0  0  0  0  0  0  0  0  0  0  0  0
   15.1024   -2.0611   19.2249 C   0  0  0  0  0  0  0  0  0  0  0  0
   14.9548   -3.4448   19.8401 C   0  0  0  0  0  0  0  0  0  0  0  0
   15.8844   -3.3230   21.0423 C   0  0  0  0  0  0  0  0  0  0  0  0
   17.0083   -2.3743   20.5943 C   0  0  0  0  0  0  0  0  0  0  0  0
   16.5764   -1.7855   19.3329 N   0  0  0  0  0  0  0  0  0  0  0  0
   17.3324   -2.0919   18.1978 C   0  0  0  0  0  0  0  0  0  0  0  0
   18.4784   -1.1901   17.8223 C   0  0  0  0  0  0  0  0  0  0  0  0
   18.8421   -1.2293   16.5326 C   0  0  0  0  0  0  0  0  0  0  0  0
   18.1660   -2.0725   15.6776 N   0  0  0  0  0  0  0  0  0  0  0  0
   18.1705   -2.1075   14.3168 C   0  0  0  0  0  0  0  0  0  0  0  0
   17.0774   -2.8706   13.9964 C   0  0  0  0  0  0  0  0  0  0  0  0
   16.5532   -3.4720   15.1038 N   0  0  0  0  0  0  0  0  0  0  0  0
   17.2244   -2.9794   16.1219 C   0  0  0  0  0  0  0  0  0  0  0  0
   16.9472   -3.0931   17.4446 N   0  0  0  0  0  0  0  0  0  0  0  0
   15.0014   -0.5182   17.3213 C   0  0  0  0  0  0  0  0  0  0  0  0
   14.7132   -0.1348   16.0347 C   0  0  0  0  0  0  0  0  0  0  0  0
   11.9224   -1.7821   13.2075 H   0  0  0  0  0  0  0  0  0  0  0  0
   11.3620   -0.0953   13.0883 H   0  0  0  0  0  0  0  0  0  0  0  0
   11.3283   -0.9691   14.6161 H   0  0  0  0  0  0  0  0  0  0  0  0
   13.9601   -0.7701   13.1490 H   0  0  0  0  0  0  0  0  0  0  0  0
   12.9144    1.5632   13.0061 H   0  0  0  0  0  0  0  0  0  0  0  0
   14.5353    1.4446   13.6531 H   0  0  0  0  0  0  0  0  0  0  0  0
   13.1882    1.7259   14.7469 H   0  0  0  0  0  0  0  0  0  0  0  0
   12.9182   -2.8696   15.0987 H   0  0  0  0  0  0  0  0  0  0  0  0
   13.5769   -3.6146   17.3329 H   0  0  0  0  0  0  0  0  0  0  0  0
   14.5967   -1.3446   19.8902 H   0  0  0  0  0  0  0  0  0  0  0  0
   15.3024   -4.2386   19.1701 H   0  0  0  0  0  0  0  0  0  0  0  0
   13.9252   -3.6752   20.1294 H   0  0  0  0  0  0  0  0  0  0  0  0
   15.3470   -2.8806   21.8899 H   0  0  0  0  0  0  0  0  0  0  0  0
   16.2695   -4.2942   21.3673 H   0  0  0  0  0  0  0  0  0  0  0  0
   17.1689   -1.5901   21.3417 H   0  0  0  0  0  0  0  0  0  0  0  0
   17.9493   -2.9266   20.4851 H   0  0  0  0  0  0  0  0  0  0  0  0
   18.8939   -0.5231   18.5621 H   0  0  0  0  0  0  0  0  0  0  0  0
   19.5982   -0.5809   16.1118 H   0  0  0  0  0  0  0  0  0  0  0  0
   18.8378   -1.5090   13.7158 H   0  0  0  0  0  0  0  0  0  0  0  0
   16.6647   -3.0470   13.0136 H   0  0  0  0  0  0  0  0  0  0  0  0
   15.5888    0.1600   17.9387 H   0  0  0  0  0  0  0  0  0  0  0  0
   15.0890    0.8285   15.7081 H   0  0  0  0  0  0  0  0  0  0  0  0
  1  2  1  0
  2  3  1  0
  2  4  1  0
  4  5  2  0
  5  6  1  0
  6  7  2  0
  7  8  1  0
  8  9  1  0
  9 10  1  0
 10 11  1  0
 11 12  1  0
 12 13  1  0
 13 14  1  0
 14 15  2  0
 15 16  1  0
 16 17  1  0
 17 18  2  0
 18 19  1  0
 19 20  2  0
 20 21  1  0
  7 22  1  0
 22 23  2  0
 23  4  1  0
 12  8  1  0
 21 13  2  0
 20 16  1  0
  1 24  1  0
  1 25  1  0
  1 26  1  0
  2 27  1  0
  3 28  1  0
  3 29  1  0
  3 30  1  0
  5 31  1  0
  6 32  1  0
  8 33  1  0
  9 34  1  0
  9 35  1  0
 10 36  1  0
 10 37  1  0
 11 38  1  0
 11 39  1  0
 14 40  1  0
 15 41  1  0
 17 42  1  0
 18 43  1  0
 22 44  1  0
 23 45  1  0
M  END
>  <Energy>  (1037) 
66.353784815605067

>  <compound_id>  (1037) 
8839

>  <target_id>  (1037) 
1

>  <reference_id>  (1037) 
124

>  <inspiration_ids>  (1037) 
[124, 106]

>  <energy_score>  (1037) 
10.413147627169963

>  <distance_score>  (1037) 
3.4012950191790625

>  <path>  (1037) 
/opt/xchem-fragalysis-2/maxwin/BulkDock/SCRATCH/511014/C8839-P124/C8839-P124.minimised.mol

>  <scratch_subdir>  (1037) 
/opt/xchem-fragalysis-2/maxwin/BulkDock/SCRATCH/511014/C8839-P124

>  <fragmenstein_runtime>  (1037) 
122.0787615776062

>  <fragmenstein_outcome>  (1037) 
too moved

>  <fragmenstein_mode>  (1037) 
expansion

>  <fragmenstein_error>  (1037) 


$$$$
C8839-P106
     RDKit          3D

 45 48  0  0  0  0  0  0  0  0999 V2000
    9.8609   -0.5234   15.1802 C   0  0  0  0  0  0  0  0  0  0  0  0
   11.1349    0.2265   14.7868 C   0  0  0  0  0  0  0  0  0  0  0  0
   10.9619    1.6951   15.2411 C   0  0  0  0  0  0  0  0  0  0  0  0
   12.4004   -0.2962   15.4096 C   0  0  0  0  0  0  0  0  0  0  0  0
   12.4641   -1.4054   16.2471 C   0  0  0  0  0  0  0  0  0  0  0  0
   13.4366   -1.4421   17.2374 C   0  0  0  0  0  0  0  0  0  0  0  0
   14.2801   -0.3485   17.4032 C   0  0  0  0  0  0  0  0  0  0  0  0
   15.0623    0.0072   18.6540 C   0  0  0  0  0  0  0  0  0  0  0  0
   14.9649   -0.8440   19.9142 C   0  0  0  0  0  0  0  0  0  0  0  0
   16.0928   -0.2607   20.7494 C   0  0  0  0  0  0  0  0  0  0  0  0
   17.1564    0.1718   19.7362 C   0  0  0  0  0  0  0  0  0  0  0  0
   16.5281    0.1527   18.4044 N   0  0  0  0  0  0  0  0  0  0  0  0
   17.0284   -0.7958   17.5173 C   0  0  0  0  0  0  0  0  0  0  0  0
   17.7989   -0.3282   16.3102 C   0  0  0  0  0  0  0  0  0  0  0  0
   18.0175   -1.2482   15.3597 C   0  0  0  0  0  0  0  0  0  0  0  0
   17.5493   -2.5313   15.5598 N   0  0  0  0  0  0  0  0  0  0  0  0
   17.5822   -3.6155   14.7369 C   0  0  0  0  0  0  0  0  0  0  0  0
   16.8388   -4.5638   15.3926 C   0  0  0  0  0  0  0  0  0  0  0  0
   16.4393   -4.1347   16.6190 N   0  0  0  0  0  0  0  0  0  0  0  0
   16.9021   -2.9136   16.7223 C   0  0  0  0  0  0  0  0  0  0  0  0
   16.7269   -2.0475   17.7417 N   0  0  0  0  0  0  0  0  0  0  0  0
   14.4025    0.5470   16.3452 C   0  0  0  0  0  0  0  0  0  0  0  0
   13.5157    0.5219   15.3038 C   0  0  0  0  0  0  0  0  0  0  0  0
    9.6000   -0.3410   16.2241 H   0  0  0  0  0  0  0  0  0  0  0  0
    9.9462   -1.6032   15.0323 H   0  0  0  0  0  0  0  0  0  0  0  0
    9.0194   -0.1731   14.5782 H   0  0  0  0  0  0  0  0  0  0  0  0
   11.2389    0.1895   13.6954 H   0  0  0  0  0  0  0  0  0  0  0  0
   11.0224    1.8028   16.3292 H   0  0  0  0  0  0  0  0  0  0  0  0
    9.9847    2.0784   14.9302 H   0  0  0  0  0  0  0  0  0  0  0  0
   11.7006    2.3656   14.7902 H   0  0  0  0  0  0  0  0  0  0  0  0
   11.7132   -2.1879   16.2276 H   0  0  0  0  0  0  0  0  0  0  0  0
   13.4609   -2.2770   17.9345 H   0  0  0  0  0  0  0  0  0  0  0  0
   14.6974    1.0086   18.9356 H   0  0  0  0  0  0  0  0  0  0  0  0
   15.1352   -1.9083   19.7241 H   0  0  0  0  0  0  0  0  0  0  0  0
   14.0004   -0.7438   20.4169 H   0  0  0  0  0  0  0  0  0  0  0  0
   15.7357    0.6154   21.3044 H   0  0  0  0  0  0  0  0  0  0  0  0
   16.4828   -0.9758   21.4799 H   0  0  0  0  0  0  0  0  0  0  0  0
   17.5104    1.1837   19.9614 H   0  0  0  0  0  0  0  0  0  0  0  0
   18.0250   -0.4962   19.7838 H   0  0  0  0  0  0  0  0  0  0  0  0
   18.0936    0.7082   16.2447 H   0  0  0  0  0  0  0  0  0  0  0  0
   18.5241   -1.0343   14.4291 H   0  0  0  0  0  0  0  0  0  0  0  0
   18.0482   -3.6037   13.7640 H   0  0  0  0  0  0  0  0  0  0  0  0
   16.5848   -5.5562   15.0464 H   0  0  0  0  0  0  0  0  0  0  0  0
   15.1405    1.3460   16.3832 H   0  0  0  0  0  0  0  0  0  0  0  0
   13.5831    1.2985   14.5471 H   0  0  0  0  0  0  0  0  0  0  0  0
  1  2  1  0
  2  3  1  0
  2  4  1  0
  4  5  2  0
  5  6  1  0
  6  7  2  0
  7  8  1  0
  8  9  1  0
  9 10  1  0
 10 11  1  0
 11 12  1  0
 12 13  1  0
 13 14  1  0
 14 15  2  0
 15 16  1  0
 16 17  1  0
 17 18  2  0
 18 19  1  0
 19 20  2  0
 20 21  1  0
  7 22  1  0
 22 23  2  0
 23  4  1  0
 12  8  1  0
 21 13  2  0
 20 16  1  0
  1 24  1  0
  1 25  1  0
  1 26  1  0
  2 27  1  0
  3 28  1  0
  3 29  1  0
  3 30  1  0
  5 31  1  0
  6 32  1  0
  8 33  1  0
  9 34  1  0
  9 35  1  0
 10 36  1  0
 10 37  1  0
 11 38  1  0
 11 39  1  0
 14 40  1  0
 15 41  1  0
 17 42  1  0
 18 43  1  0
 22 44  1  0
 23 45  1  0
M  END
>  <Energy>  (1038) 
62.413029902991596

>  <compound_id>  (1038) 
8839

>  <target_id>  (1038) 
1

>  <reference_id>  (1038) 
106

>  <inspiration_ids>  (1038) 
[124, 106]

>  <energy_score>  (1038) 
6.472392714555269

>  <distance_score>  (1038) 
3.114347763640783

>  <path>  (1038) 
/opt/xchem-fragalysis-2/maxwin/BulkDock/SCRATCH/511014/C8839-P106/C8839-P106.minimised.mol

>  <scratch_subdir>  (1038) 
/opt/xchem-fragalysis-2/maxwin/BulkDock/SCRATCH/511014/C8839-P106

>  <fragmenstein_runtime>  (1038) 
119.11017990112305

>  <fragmenstein_outcome>  (1038) 
too moved

>  <fragmenstein_mode>  (1038) 
expansion

>  <fragmenstein_error>  (1038) 


$$$$
C8840-P124
     RDKit          3D

 43 46  0  0  0  0  0  0  0  0999 V2000
   16.7557    0.9167   17.3511 C   0  0  0  0  0  0  0  0  0  0  0  0
   15.3875    0.9101   17.3482 C   0  0  0  0  0  0  0  0  0  0  0  0
   14.6776   -0.1506   17.7594 N   0  0  0  0  0  0  0  0  0  0  0  0
   15.3319   -1.2585   18.1810 C   0  0  0  0  0  0  0  0  0  0  0  0
   16.7096   -1.3672   18.2053 C   0  0  0  0  0  0  0  0  0  0  0  0
   17.4834   -2.6248   18.5814 C   0  0  0  0  0  0  0  0  0  0  0  0
   17.2101   -3.8643   17.6591 C   0  0  0  0  0  0  0  0  0  0  0  0
   17.1917   -3.5207   16.2210 N   0  0  0  0  0  0  0  0  0  0  0  0
   16.0117   -3.0377   15.6955 C   0  0  0  0  0  0  0  0  0  0  0  0
   16.0941   -1.9607   14.6565 C   0  0  0  0  0  0  0  0  0  0  0  0
   14.9350   -1.4267   14.2555 C   0  0  0  0  0  0  0  0  0  0  0  0
   13.7509   -1.9206   14.7687 N   0  0  0  0  0  0  0  0  0  0  0  0
   12.4633   -1.6267   14.4215 C   0  0  0  0  0  0  0  0  0  0  0  0
   11.6896   -2.4995   15.1446 C   0  0  0  0  0  0  0  0  0  0  0  0
   12.4635   -3.2696   15.9768 N   0  0  0  0  0  0  0  0  0  0  0  0
   13.7156   -2.9377   15.7161 C   0  0  0  0  0  0  0  0  0  0  0  0
   14.8799   -3.4936   16.1750 N   0  0  0  0  0  0  0  0  0  0  0  0
   17.4965   -2.9771   20.0133 N   0  0  0  0  0  0  0  0  0  0  0  0
   17.9771   -1.9308   20.9123 C   0  0  0  0  0  0  0  0  0  0  0  0
   17.7080   -2.5162   22.2920 C   0  0  0  0  0  0  0  0  0  0  0  0
   16.6112   -3.5550   22.0814 C   0  0  0  0  0  0  0  0  0  0  0  0
   16.2530   -3.4621   20.6045 C   0  0  0  0  0  0  0  0  0  0  0  0
   17.4129   -0.2313   17.7826 C   0  0  0  0  0  0  0  0  0  0  0  0
   17.3090    1.7894   17.0240 H   0  0  0  0  0  0  0  0  0  0  0  0
   14.8180    1.7704   17.0136 H   0  0  0  0  0  0  0  0  0  0  0  0
   14.6870   -2.0831   18.4714 H   0  0  0  0  0  0  0  0  0  0  0  0
   18.5364   -2.3935   18.3575 H   0  0  0  0  0  0  0  0  0  0  0  0
   18.0089   -4.6003   17.8141 H   0  0  0  0  0  0  0  0  0  0  0  0
   16.2808   -4.3685   17.9451 H   0  0  0  0  0  0  0  0  0  0  0  0
   18.0370   -3.0518   15.9187 H   0  0  0  0  0  0  0  0  0  0  0  0
   17.0559   -1.6397   14.2867 H   0  0  0  0  0  0  0  0  0  0  0  0
   14.8675   -0.6408   13.5159 H   0  0  0  0  0  0  0  0  0  0  0  0
   12.2071   -0.8713   13.6931 H   0  0  0  0  0  0  0  0  0  0  0  0
   10.6136   -2.6052   15.1109 H   0  0  0  0  0  0  0  0  0  0  0  0
   17.4159   -0.9954   20.8023 H   0  0  0  0  0  0  0  0  0  0  0  0
   19.0415   -1.7187   20.7708 H   0  0  0  0  0  0  0  0  0  0  0  0
   17.3975   -1.7405   22.9997 H   0  0  0  0  0  0  0  0  0  0  0  0
   18.6056   -2.9992   22.6952 H   0  0  0  0  0  0  0  0  0  0  0  0
   15.7430   -3.3659   22.7208 H   0  0  0  0  0  0  0  0  0  0  0  0
   16.9958   -4.5529   22.3239 H   0  0  0  0  0  0  0  0  0  0  0  0
   15.9457   -4.4377   20.2173 H   0  0  0  0  0  0  0  0  0  0  0  0
   15.4256   -2.7564   20.4858 H   0  0  0  0  0  0  0  0  0  0  0  0
   18.5015   -0.2314   17.7812 H   0  0  0  0  0  0  0  0  0  0  0  0
  1  2  2  0
  2  3  1  0
  3  4  2  0
  4  5  1  0
  5  6  1  0
  6  7  1  0
  7  8  1  0
  8  9  1  0
  9 10  1  0
 10 11  2  0
 11 12  1  0
 12 13  1  0
 13 14  2  0
 14 15  1  0
 15 16  2  0
 16 17  1  0
  6 18  1  0
 18 19  1  0
 19 20  1  0
 20 21  1  0
 21 22  1  0
  5 23  2  0
 23  1  1  0
 17  9  2  0
 22 18  1  0
 16 12  1  0
  1 24  1  0
  2 25  1  0
  4 26  1  0
  6 27  1  0
  7 28  1  0
  7 29  1  0
  8 30  1  0
 10 31  1  0
 11 32  1  0
 13 33  1  0
 14 34  1  0
 19 35  1  0
 19 36  1  0
 20 37  1  0
 20 38  1  0
 21 39  1  0
 21 40  1  0
 22 41  1  0
 22 42  1  0
 23 43  1  0
M  END
>  <Energy>  (1039) 
49.631020881664334

>  <compound_id>  (1039) 
8840

>  <target_id>  (1039) 
1

>  <reference_id>  (1039) 
124

>  <inspiration_ids>  (1039) 
[124, 106]

>  <energy_score>  (1039) 
-66.55893282727979

>  <distance_score>  (1039) 
2.5326588926715665

>  <path>  (1039) 
/opt/xchem-fragalysis-2/maxwin/BulkDock/SCRATCH/511014/C8840-P124/C8840-P124.minimised.mol

>  <scratch_subdir>  (1039) 
/opt/xchem-fragalysis-2/maxwin/BulkDock/SCRATCH/511014/C8840-P124

>  <fragmenstein_runtime>  (1039) 
3.427718162536621

>  <fragmenstein_outcome>  (1039) 
too moved

>  <fragmenstein_mode>  (1039) 
expansion

>  <fragmenstein_error>  (1039) 


$$$$
C8840-P106
     RDKit          3D

 43 46  0  0  0  0  0  0  0  0999 V2000
   14.3895    0.1311   18.5568 C   0  0  0  0  0  0  0  0  0  0  0  0
   13.9301    0.8968   17.4964 C   0  0  0  0  0  0  0  0  0  0  0  0
   14.5883    1.0229   16.3329 N   0  0  0  0  0  0  0  0  0  0  0  0
   15.7840    0.3919   16.2680 C   0  0  0  0  0  0  0  0  0  0  0  0
   16.3397   -0.4142   17.2667 C   0  0  0  0  0  0  0  0  0  0  0  0
   17.7483   -0.9980   17.1113 C   0  0  0  0  0  0  0  0  0  0  0  0
   17.7298   -2.5682   17.1915 C   0  0  0  0  0  0  0  0  0  0  0  0
   17.2928   -3.2377   15.9355 N   0  0  0  0  0  0  0  0  0  0  0  0
   16.0398   -2.9000   15.4853 C   0  0  0  0  0  0  0  0  0  0  0  0
   15.9784   -2.0818   14.2381 C   0  0  0  0  0  0  0  0  0  0  0  0
   14.7750   -1.6091   13.9030 C   0  0  0  0  0  0  0  0  0  0  0  0
   13.6816   -1.9584   14.6704 N   0  0  0  0  0  0  0  0  0  0  0  0
   12.3659   -1.6647   14.4688 C   0  0  0  0  0  0  0  0  0  0  0  0
   11.6940   -2.4111   15.3996 C   0  0  0  0  0  0  0  0  0  0  0  0
   12.5627   -3.0928   16.2168 N   0  0  0  0  0  0  0  0  0  0  0  0
   13.7756   -2.8096   15.7720 C   0  0  0  0  0  0  0  0  0  0  0  0
   15.0011   -3.2799   16.1823 N   0  0  0  0  0  0  0  0  0  0  0  0
   18.6756   -0.3901   18.1110 N   0  0  0  0  0  0  0  0  0  0  0  0
   20.0715   -0.8221   17.9601 C   0  0  0  0  0  0  0  0  0  0  0  0
   20.8917    0.2403   18.6826 C   0  0  0  0  0  0  0  0  0  0  0  0
   19.9484    1.4164   18.8712 C   0  0  0  0  0  0  0  0  0  0  0  0
   18.7409    1.0770   18.0169 C   0  0  0  0  0  0  0  0  0  0  0  0
   15.5897   -0.5572   18.4295 C   0  0  0  0  0  0  0  0  0  0  0  0
   13.8478    0.0825   19.4924 H   0  0  0  0  0  0  0  0  0  0  0  0
   13.0097    1.4661   17.5663 H   0  0  0  0  0  0  0  0  0  0  0  0
   16.3312    0.5891   15.3493 H   0  0  0  0  0  0  0  0  0  0  0  0
   18.1174   -0.7325   16.1099 H   0  0  0  0  0  0  0  0  0  0  0  0
   18.7383   -2.9522   17.3683 H   0  0  0  0  0  0  0  0  0  0  0  0
   17.1174   -2.9190   18.0314 H   0  0  0  0  0  0  0  0  0  0  0  0
   17.2408   -4.2252   16.1884 H   0  0  0  0  0  0  0  0  0  0  0  0
   16.8849   -1.8842   13.6853 H   0  0  0  0  0  0  0  0  0  0  0  0
   14.6006   -0.9859   13.0366 H   0  0  0  0  0  0  0  0  0  0  0  0
   12.0199   -1.0199   13.6746 H   0  0  0  0  0  0  0  0  0  0  0  0
   10.6239   -2.4921   15.5076 H   0  0  0  0  0  0  0  0  0  0  0  0
   20.3712   -0.8585   16.9051 H   0  0  0  0  0  0  0  0  0  0  0  0
   20.2517   -1.8040   18.4079 H   0  0  0  0  0  0  0  0  0  0  0  0
   21.7666    0.5253   18.0884 H   0  0  0  0  0  0  0  0  0  0  0  0
   21.2475   -0.1196   19.6543 H   0  0  0  0  0  0  0  0  0  0  0  0
   20.4081    2.3651   18.5780 H   0  0  0  0  0  0  0  0  0  0  0  0
   19.6601    1.4938   19.9267 H   0  0  0  0  0  0  0  0  0  0  0  0
   17.8468    1.5719   18.4080 H   0  0  0  0  0  0  0  0  0  0  0  0
   18.9079    1.4079   16.9838 H   0  0  0  0  0  0  0  0  0  0  0  0
   15.9636   -1.1412   19.2663 H   0  0  0  0  0  0  0  0  0  0  0  0
  1  2  2  0
  2  3  1  0
  3  4  2  0
  4  5  1  0
  5  6  1  0
  6  7  1  0
  7  8  1  0
  8  9  1  0
  9 10  1  0
 10 11  2  0
 11 12  1  0
 12 13  1  0
 13 14  2  0
 14 15  1  0
 15 16  2  0
 16 17  1  0
  6 18  1  0
 18 19  1  0
 19 20  1  0
 20 21  1  0
 21 22  1  0
  5 23  2  0
 23  1  1  0
 17  9  2  0
 22 18  1  0
 16 12  1  0
  1 24  1  0
  2 25  1  0
  4 26  1  0
  6 27  1  0
  7 28  1  0
  7 29  1  0
  8 30  1  0
 10 31  1  0
 11 32  1  0
 13 33  1  0
 14 34  1  0
 19 35  1  0
 19 36  1  0
 20 37  1  0
 20 38  1  0
 21 39  1  0
 21 40  1  0
 22 41  1  0
 22 42  1  0
 23 43  1  0
M  END
>  <Energy>  (1040) 
50.73551833992834

>  <compound_id>  (1040) 
8840

>  <target_id>  (1040) 
1

>  <reference_id>  (1040) 
106

>  <inspiration_ids>  (1040) 
[124, 106]

>  <energy_score>  (1040) 
-65.45443536901618

>  <distance_score>  (1040) 
2.3375580389836563

>  <path>  (1040) 
/opt/xchem-fragalysis-2/maxwin/BulkDock/SCRATCH/511014/C8840-P106/C8840-P106.minimised.mol

>  <scratch_subdir>  (1040) 
/opt/xchem-fragalysis-2/maxwin/BulkDock/SCRATCH/511014/C8840-P106

>  <fragmenstein_runtime>  (1040) 
4.037845849990845

>  <fragmenstein_outcome>  (1040) 
too moved

>  <fragmenstein_mode>  (1040) 
expansion

>  <fragmenstein_error>  (1040) 


$$$$
C6302-P52
     RDKit          3D

 40 43  0  0  0  0  0  0  0  0999 V2000
  -11.7016  -12.6645   27.2201 C   0  0  0  0  0  0  0  0  0  0  0  0
  -10.6446  -13.5532   26.6891 C   0  0  0  0  0  0  0  0  0  0  0  0
  -10.7200  -14.8357   26.2719 N   0  0  0  0  0  0  0  0  0  0  0  0
   -9.6143  -15.2340   25.4235 C   0  0  0  0  0  0  0  0  0  0  0  0
   -9.4304  -15.8045   23.7020 C   0  0  0  0  0  0  0  0  0  0  0  0
   -7.9969  -16.0226   22.2425 C   0  0  0  0  0  0  0  0  0  0  0  0
   -8.4331  -15.2943   20.2758 C   0  0  0  0  0  0  0  0  0  0  0  0
   -9.0921  -16.0471   19.7058 O   0  0  0  0  0  0  0  0  0  0  0  0
   -8.1901  -13.6258   19.2635 N   0  0  0  0  0  0  0  0  0  0  0  0
   -8.8089  -13.0987   17.8929 C   0  0  0  0  0  0  0  0  0  0  0  0
   -8.0421  -11.6841   17.3126 C   0  0  0  0  0  0  0  0  0  0  0  0
   -6.9693  -11.1284   17.8714 N   0  0  0  0  0  0  0  0  0  0  0  0
   -6.6318   -9.9621   17.2144 N   0  0  0  0  0  0  0  0  0  0  0  0
   -7.4505   -9.8172   16.2038 C   0  0  0  0  0  0  0  0  0  0  0  0
   -8.3121  -10.9021   16.1783 N   0  0  0  0  0  0  0  0  0  0  0  0
   -9.2377  -11.0532   15.0759 C   0  0  0  0  0  0  0  0  0  0  0  0
   -8.9276  -10.0969   13.8881 C   0  0  0  0  0  0  0  0  0  0  0  0
   -8.6320   -8.7276   14.3224 N   0  0  0  0  0  0  0  0  0  0  0  0
   -7.4316   -8.7280   15.1736 C   0  0  0  0  0  0  0  0  0  0  0  0
   -7.2077  -14.5809   23.3022 C   0  0  0  0  0  0  0  0  0  0  0  0
   -7.7877  -14.1019   24.7611 C   0  0  0  0  0  0  0  0  0  0  0  0
   -8.7363  -14.2017   25.7998 C   0  0  0  0  0  0  0  0  0  0  0  0
   -9.2797  -13.2486   26.6426 N   0  0  0  0  0  0  0  0  0  0  0  0
  -11.9577  -11.8998   26.4809 H   0  0  0  0  0  0  0  0  0  0  0  0
  -11.3732  -12.1656   28.1368 H   0  0  0  0  0  0  0  0  0  0  0  0
  -12.6047  -13.2390   27.4467 H   0  0  0  0  0  0  0  0  0  0  0  0
  -10.3240  -16.5108   23.7628 H   0  0  0  0  0  0  0  0  0  0  0  0
   -7.5623  -13.0731   19.7309 H   0  0  0  0  0  0  0  0  0  0  0  0
   -8.5057  -13.6907   17.0528 H   0  0  0  0  0  0  0  0  0  0  0  0
   -9.8666  -12.8748   18.0166 H   0  0  0  0  0  0  0  0  0  0  0  0
  -10.2394  -10.8662   15.4766 H   0  0  0  0  0  0  0  0  0  0  0  0
   -9.1635  -12.0833   14.7230 H   0  0  0  0  0  0  0  0  0  0  0  0
   -8.0819  -10.4906   13.3091 H   0  0  0  0  0  0  0  0  0  0  0  0
   -9.7918  -10.0849   13.2148 H   0  0  0  0  0  0  0  0  0  0  0  0
   -8.4547   -8.1291   13.5158 H   0  0  0  0  0  0  0  0  0  0  0  0
   -6.5374   -8.8492   14.5504 H   0  0  0  0  0  0  0  0  0  0  0  0
   -7.3547   -7.7571   15.6742 H   0  0  0  0  0  0  0  0  0  0  0  0
   -6.5751  -13.7610   22.9389 H   0  0  0  0  0  0  0  0  0  0  0  0
   -7.8655  -15.1776   24.8219 H   0  0  0  0  0  0  0  0  0  0  0  0
   -8.8797  -12.3469   26.8587 H   0  0  0  0  0  0  0  0  0  0  0  0
  1  2  1  0
  2  3  2  0
  3  4  1  0
  4  5  2  0
  5  6  1  0
  6  7  1  0
  7  8  2  0
  7  9  1  0
  9 10  1  0
 10 11  1  0
 11 12  2  0
 12 13  1  0
 13 14  2  0
 14 15  1  0
 15 16  1  0
 16 17  1  0
 17 18  1  0
 18 19  1  0
  6 20  2  0
 20 21  1  0
 21 22  2  0
 22 23  1  0
 23  2  1  0
 22  4  1  0
 15 11  1  0
 19 14  1  0
  1 24  1  0
  1 25  1  0
  1 26  1  0
  5 27  1  0
  9 28  1  0
 10 29  1  0
 10 30  1  0
 16 31  1  0
 16 32  1  0
 17 33  1  0
 17 34  1  0
 18 35  1  0
 19 36  1  0
 19 37  1  0
 20 38  1  0
 21 39  1  0
 23 40  1  0
M  END
>  <Energy>  (1041) 
809.94261906273994

>  <compound_id>  (1041) 
6302

>  <target_id>  (1041) 
1

>  <reference_id>  (1041) 
52

>  <inspiration_ids>  (1041) 
[52, 65]

>  <energy_score>  (1041) 
772.0553574108437

>  <distance_score>  (1041) 
12.716642399541625

>  <path>  (1041) 
/opt/xchem-fragalysis-2/maxwin/BulkDock/SCRATCH/511014/C6302-P52/C6302-P52.minimised.mol

>  <scratch_subdir>  (1041) 
/opt/xchem-fragalysis-2/maxwin/BulkDock/SCRATCH/511014/C6302-P52

>  <fragmenstein_runtime>  (1041) 
24.357895135879517

>  <fragmenstein_outcome>  (1041) 
too moved

>  <fragmenstein_mode>  (1041) 
expansion

>  <fragmenstein_error>  (1041) 


$$$$
C6302-P65
     RDKit          3D

 40 43  0  0  0  0  0  0  0  0999 V2000
  -11.5712  -14.9943   22.4934 C   0  0  0  0  0  0  0  0  0  0  0  0
  -11.3401  -13.7080   21.0462 C   0  0  0  0  0  0  0  0  0  0  0  0
   -9.7780  -13.1346   20.7154 N   0  0  0  0  0  0  0  0  0  0  0  0
   -9.2574  -12.4109   19.0592 C   0  0  0  0  0  0  0  0  0  0  0  0
   -8.6593  -11.0730   18.3835 C   0  0  0  0  0  0  0  0  0  0  0  0
   -9.2579   -9.9129   17.5323 C   0  0  0  0  0  0  0  0  0  0  0  0
   -8.8631   -8.2007   17.4541 C   0  0  0  0  0  0  0  0  0  0  0  0
   -8.4129   -7.8326   18.5159 O   0  0  0  0  0  0  0  0  0  0  0  0
   -9.2168   -7.3716   16.1558 N   0  0  0  0  0  0  0  0  0  0  0  0
   -9.1904   -5.6696   15.8654 C   0  0  0  0  0  0  0  0  0  0  0  0
   -8.2931   -4.8122   14.6866 C   0  0  0  0  0  0  0  0  0  0  0  0
   -7.1002   -5.2795   14.4282 N   0  0  0  0  0  0  0  0  0  0  0  0
   -7.0636   -5.5602   13.1023 N   0  0  0  0  0  0  0  0  0  0  0  0
   -8.0078   -4.7915   12.2399 C   0  0  0  0  0  0  0  0  0  0  0  0
   -8.5832   -3.8467   13.5018 N   0  0  0  0  0  0  0  0  0  0  0  0
   -8.3274   -2.0067   13.3627 C   0  0  0  0  0  0  0  0  0  0  0  0
   -7.3143   -1.1778   11.7093 C   0  0  0  0  0  0  0  0  0  0  0  0
   -6.8533   -2.2193    9.9711 N   0  0  0  0  0  0  0  0  0  0  0  0
   -7.0509   -4.3453   10.4389 C   0  0  0  0  0  0  0  0  0  0  0  0
  -10.5720  -10.1805   17.2891 C   0  0  0  0  0  0  0  0  0  0  0  0
  -11.1463  -11.3963   17.7378 C   0  0  0  0  0  0  0  0  0  0  0  0
  -10.4481  -12.4654   18.5347 C   0  0  0  0  0  0  0  0  0  0  0  0
  -10.4826  -13.7036   19.4515 N   0  0  0  0  0  0  0  0  0  0  0  0
  -11.2226  -15.8455   23.0251 H   0  0  0  0  0  0  0  0  0  0  0  0
  -12.2960  -14.8984   23.2936 H   0  0  0  0  0  0  0  0  0  0  0  0
  -11.9874  -15.8303   21.8307 H   0  0  0  0  0  0  0  0  0  0  0  0
   -7.8150  -11.4809   17.7887 H   0  0  0  0  0  0  0  0  0  0  0  0
   -9.4971   -8.0045   15.4188 H   0  0  0  0  0  0  0  0  0  0  0  0
  -10.2402   -5.4384   15.6565 H   0  0  0  0  0  0  0  0  0  0  0  0
   -8.8932   -5.2470   16.8308 H   0  0  0  0  0  0  0  0  0  0  0  0
   -9.4159   -1.8152   13.4022 H   0  0  0  0  0  0  0  0  0  0  0  0
   -7.8194   -1.8730   14.3365 H   0  0  0  0  0  0  0  0  0  0  0  0
   -7.9687   -0.3909   11.2488 H   0  0  0  0  0  0  0  0  0  0  0  0
   -6.3542   -0.9500   12.2192 H   0  0  0  0  0  0  0  0  0  0  0  0
   -7.5862   -2.0631    9.2318 H   0  0  0  0  0  0  0  0  0  0  0  0
   -7.8186   -4.4979    9.5069 H   0  0  0  0  0  0  0  0  0  0  0  0
   -6.6918   -5.2818    9.8861 H   0  0  0  0  0  0  0  0  0  0  0  0
  -11.2179   -9.4357   16.8346 H   0  0  0  0  0  0  0  0  0  0  0  0
  -12.2251  -11.4471   17.5787 H   0  0  0  0  0  0  0  0  0  0  0  0
   -9.6855  -14.2805   19.6635 H   0  0  0  0  0  0  0  0  0  0  0  0
  1  2  1  0
  2  3  2  0
  3  4  1  0
  4  5  2  0
  5  6  1  0
  6  7  1  0
  7  8  2  0
  7  9  1  0
  9 10  1  0
 10 11  1  0
 11 12  2  0
 12 13  1  0
 13 14  2  0
 14 15  1  0
 15 16  1  0
 16 17  1  0
 17 18  1  0
 18 19  1  0
  6 20  2  0
 20 21  1  0
 21 22  2  0
 22 23  1  0
 23  2  1  0
 22  4  1  0
 15 11  1  0
 19 14  1  0
  1 24  1  0
  1 25  1  0
  1 26  1  0
  5 27  1  0
  9 28  1  0
 10 29  1  0
 10 30  1  0
 16 31  1  0
 16 32  1  0
 17 33  1  0
 17 34  1  0
 18 35  1  0
 19 36  1  0
 19 37  1  0
 20 38  1  0
 21 39  1  0
 23 40  1  0
M  END
>  <Energy>  (1042) 
1186.2521647511226

>  <compound_id>  (1042) 
6302

>  <target_id>  (1042) 
1

>  <reference_id>  (1042) 
65

>  <inspiration_ids>  (1042) 
[52, 65]

>  <energy_score>  (1042) 
1148.3649030992137

>  <distance_score>  (1042) 
13.49587215574615

>  <path>  (1042) 
/opt/xchem-fragalysis-2/maxwin/BulkDock/SCRATCH/511014/C6302-P65/C6302-P65.minimised.mol

>  <scratch_subdir>  (1042) 
/opt/xchem-fragalysis-2/maxwin/BulkDock/SCRATCH/511014/C6302-P65

>  <fragmenstein_runtime>  (1042) 
44.54952073097229

>  <fragmenstein_outcome>  (1042) 
too moved

>  <fragmenstein_mode>  (1042) 
expansion

>  <fragmenstein_error>  (1042) 


$$$$
C6302-P52
     RDKit          3D

 40 43  0  0  0  0  0  0  0  0999 V2000
  -11.7016  -12.6645   27.2201 C   0  0  0  0  0  0  0  0  0  0  0  0
  -10.6446  -13.5532   26.6891 C   0  0  0  0  0  0  0  0  0  0  0  0
  -10.7200  -14.8357   26.2719 N   0  0  0  0  0  0  0  0  0  0  0  0
   -9.6143  -15.2340   25.4235 C   0  0  0  0  0  0  0  0  0  0  0  0
   -9.4304  -15.8045   23.7020 C   0  0  0  0  0  0  0  0  0  0  0  0
   -7.9969  -16.0226   22.2425 C   0  0  0  0  0  0  0  0  0  0  0  0
   -8.4331  -15.2943   20.2758 C   0  0  0  0  0  0  0  0  0  0  0  0
   -9.0921  -16.0471   19.7058 O   0  0  0  0  0  0  0  0  0  0  0  0
   -8.1901  -13.6258   19.2635 N   0  0  0  0  0  0  0  0  0  0  0  0
   -8.8089  -13.0987   17.8929 C   0  0  0  0  0  0  0  0  0  0  0  0
   -8.0421  -11.6841   17.3126 C   0  0  0  0  0  0  0  0  0  0  0  0
   -6.9693  -11.1284   17.8714 N   0  0  0  0  0  0  0  0  0  0  0  0
   -6.6318   -9.9621   17.2144 N   0  0  0  0  0  0  0  0  0  0  0  0
   -7.4505   -9.8172   16.2038 C   0  0  0  0  0  0  0  0  0  0  0  0
   -8.3121  -10.9021   16.1783 N   0  0  0  0  0  0  0  0  0  0  0  0
   -9.2377  -11.0532   15.0759 C   0  0  0  0  0  0  0  0  0  0  0  0
   -8.9276  -10.0969   13.8881 C   0  0  0  0  0  0  0  0  0  0  0  0
   -8.6320   -8.7276   14.3224 N   0  0  0  0  0  0  0  0  0  0  0  0
   -7.4316   -8.7280   15.1736 C   0  0  0  0  0  0  0  0  0  0  0  0
   -7.2077  -14.5809   23.3022 C   0  0  0  0  0  0  0  0  0  0  0  0
   -7.7877  -14.1019   24.7611 C   0  0  0  0  0  0  0  0  0  0  0  0
   -8.7363  -14.2017   25.7998 C   0  0  0  0  0  0  0  0  0  0  0  0
   -9.2797  -13.2486   26.6426 N   0  0  0  0  0  0  0  0  0  0  0  0
  -11.9577  -11.8998   26.4809 H   0  0  0  0  0  0  0  0  0  0  0  0
  -11.3732  -12.1656   28.1368 H   0  0  0  0  0  0  0  0  0  0  0  0
  -12.6047  -13.2390   27.4467 H   0  0  0  0  0  0  0  0  0  0  0  0
  -10.3240  -16.5108   23.7628 H   0  0  0  0  0  0  0  0  0  0  0  0
   -7.5623  -13.0731   19.7309 H   0  0  0  0  0  0  0  0  0  0  0  0
   -8.5057  -13.6907   17.0528 H   0  0  0  0  0  0  0  0  0  0  0  0
   -9.8666  -12.8748   18.0166 H   0  0  0  0  0  0  0  0  0  0  0  0
  -10.2394  -10.8662   15.4766 H   0  0  0  0  0  0  0  0  0  0  0  0
   -9.1635  -12.0833   14.7230 H   0  0  0  0  0  0  0  0  0  0  0  0
   -8.0819  -10.4906   13.3091 H   0  0  0  0  0  0  0  0  0  0  0  0
   -9.7918  -10.0849   13.2148 H   0  0  0  0  0  0  0  0  0  0  0  0
   -8.4547   -8.1291   13.5158 H   0  0  0  0  0  0  0  0  0  0  0  0
   -6.5374   -8.8492   14.5504 H   0  0  0  0  0  0  0  0  0  0  0  0
   -7.3547   -7.7571   15.6742 H   0  0  0  0  0  0  0  0  0  0  0  0
   -6.5751  -13.7610   22.9389 H   0  0  0  0  0  0  0  0  0  0  0  0
   -7.8655  -15.1776   24.8219 H   0  0  0  0  0  0  0  0  0  0  0  0
   -8.8797  -12.3469   26.8587 H   0  0  0  0  0  0  0  0  0  0  0  0
  1  2  1  0
  2  3  2  0
  3  4  1  0
  4  5  2  0
  5  6  1  0
  6  7  1  0
  7  8  2  0
  7  9  1  0
  9 10  1  0
 10 11  1  0
 11 12  2  0
 12 13  1  0
 13 14  2  0
 14 15  1  0
 15 16  1  0
 16 17  1  0
 17 18  1  0
 18 19  1  0
  6 20  2  0
 20 21  1  0
 21 22  2  0
 22 23  1  0
 23  2  1  0
 22  4  1  0
 15 11  1  0
 19 14  1  0
  1 24  1  0
  1 25  1  0
  1 26  1  0
  5 27  1  0
  9 28  1  0
 10 29  1  0
 10 30  1  0
 16 31  1  0
 16 32  1  0
 17 33  1  0
 17 34  1  0
 18 35  1  0
 19 36  1  0
 19 37  1  0
 20 38  1  0
 21 39  1  0
 23 40  1  0
M  END
>  <Energy>  (1043) 
809.94261906273994

>  <compound_id>  (1043) 
6302

>  <target_id>  (1043) 
1

>  <reference_id>  (1043) 
52

>  <inspiration_ids>  (1043) 
[52, 65]

>  <energy_score>  (1043) 
772.0553574108437

>  <distance_score>  (1043) 
12.716642399541625

>  <path>  (1043) 
/opt/xchem-fragalysis-2/maxwin/BulkDock/SCRATCH/511014/C6302-P52/C6302-P52.minimised.mol

>  <scratch_subdir>  (1043) 
/opt/xchem-fragalysis-2/maxwin/BulkDock/SCRATCH/511014/C6302-P52

>  <fragmenstein_runtime>  (1043) 
24.442090272903442

>  <fragmenstein_outcome>  (1043) 
too moved

>  <fragmenstein_mode>  (1043) 
expansion

>  <fragmenstein_error>  (1043) 


$$$$
C6302-P65
     RDKit          3D

 40 43  0  0  0  0  0  0  0  0999 V2000
  -11.5712  -14.9943   22.4934 C   0  0  0  0  0  0  0  0  0  0  0  0
  -11.3401  -13.7080   21.0462 C   0  0  0  0  0  0  0  0  0  0  0  0
   -9.7780  -13.1346   20.7154 N   0  0  0  0  0  0  0  0  0  0  0  0
   -9.2574  -12.4109   19.0592 C   0  0  0  0  0  0  0  0  0  0  0  0
   -8.6593  -11.0730   18.3835 C   0  0  0  0  0  0  0  0  0  0  0  0
   -9.2579   -9.9129   17.5323 C   0  0  0  0  0  0  0  0  0  0  0  0
   -8.8631   -8.2007   17.4541 C   0  0  0  0  0  0  0  0  0  0  0  0
   -8.4129   -7.8326   18.5159 O   0  0  0  0  0  0  0  0  0  0  0  0
   -9.2168   -7.3716   16.1558 N   0  0  0  0  0  0  0  0  0  0  0  0
   -9.1904   -5.6696   15.8654 C   0  0  0  0  0  0  0  0  0  0  0  0
   -8.2931   -4.8122   14.6866 C   0  0  0  0  0  0  0  0  0  0  0  0
   -7.1002   -5.2795   14.4282 N   0  0  0  0  0  0  0  0  0  0  0  0
   -7.0636   -5.5602   13.1023 N   0  0  0  0  0  0  0  0  0  0  0  0
   -8.0078   -4.7915   12.2399 C   0  0  0  0  0  0  0  0  0  0  0  0
   -8.5832   -3.8467   13.5018 N   0  0  0  0  0  0  0  0  0  0  0  0
   -8.3274   -2.0067   13.3627 C   0  0  0  0  0  0  0  0  0  0  0  0
   -7.3143   -1.1778   11.7093 C   0  0  0  0  0  0  0  0  0  0  0  0
   -6.8533   -2.2193    9.9711 N   0  0  0  0  0  0  0  0  0  0  0  0
   -7.0509   -4.3453   10.4389 C   0  0  0  0  0  0  0  0  0  0  0  0
  -10.5720  -10.1805   17.2891 C   0  0  0  0  0  0  0  0  0  0  0  0
  -11.1463  -11.3963   17.7378 C   0  0  0  0  0  0  0  0  0  0  0  0
  -10.4481  -12.4654   18.5347 C   0  0  0  0  0  0  0  0  0  0  0  0
  -10.4826  -13.7036   19.4515 N   0  0  0  0  0  0  0  0  0  0  0  0
  -11.2226  -15.8455   23.0251 H   0  0  0  0  0  0  0  0  0  0  0  0
  -12.2960  -14.8984   23.2936 H   0  0  0  0  0  0  0  0  0  0  0  0
  -11.9874  -15.8303   21.8307 H   0  0  0  0  0  0  0  0  0  0  0  0
   -7.8150  -11.4809   17.7887 H   0  0  0  0  0  0  0  0  0  0  0  0
   -9.4971   -8.0045   15.4188 H   0  0  0  0  0  0  0  0  0  0  0  0
  -10.2402   -5.4384   15.6565 H   0  0  0  0  0  0  0  0  0  0  0  0
   -8.8932   -5.2470   16.8308 H   0  0  0  0  0  0  0  0  0  0  0  0
   -9.4159   -1.8152   13.4022 H   0  0  0  0  0  0  0  0  0  0  0  0
   -7.8194   -1.8730   14.3365 H   0  0  0  0  0  0  0  0  0  0  0  0
   -7.9687   -0.3909   11.2488 H   0  0  0  0  0  0  0  0  0  0  0  0
   -6.3542   -0.9500   12.2192 H   0  0  0  0  0  0  0  0  0  0  0  0
   -7.5862   -2.0631    9.2318 H   0  0  0  0  0  0  0  0  0  0  0  0
   -7.8186   -4.4979    9.5069 H   0  0  0  0  0  0  0  0  0  0  0  0
   -6.6918   -5.2818    9.8861 H   0  0  0  0  0  0  0  0  0  0  0  0
  -11.2179   -9.4357   16.8346 H   0  0  0  0  0  0  0  0  0  0  0  0
  -12.2251  -11.4471   17.5787 H   0  0  0  0  0  0  0  0  0  0  0  0
   -9.6855  -14.2805   19.6635 H   0  0  0  0  0  0  0  0  0  0  0  0
  1  2  1  0
  2  3  2  0
  3  4  1  0
  4  5  2  0
  5  6  1  0
  6  7  1  0
  7  8  2  0
  7  9  1  0
  9 10  1  0
 10 11  1  0
 11 12  2  0
 12 13  1  0
 13 14  2  0
 14 15  1  0
 15 16  1  0
 16 17  1  0
 17 18  1  0
 18 19  1  0
  6 20  2  0
 20 21  1  0
 21 22  2  0
 22 23  1  0
 23  2  1  0
 22  4  1  0
 15 11  1  0
 19 14  1  0
  1 24  1  0
  1 25  1  0
  1 26  1  0
  5 27  1  0
  9 28  1  0
 10 29  1  0
 10 30  1  0
 16 31  1  0
 16 32  1  0
 17 33  1  0
 17 34  1  0
 18 35  1  0
 19 36  1  0
 19 37  1  0
 20 38  1  0
 21 39  1  0
 23 40  1  0
M  END
>  <Energy>  (1044) 
1186.2521647511226

>  <compound_id>  (1044) 
6302

>  <target_id>  (1044) 
1

>  <reference_id>  (1044) 
65

>  <inspiration_ids>  (1044) 
[52, 65]

>  <energy_score>  (1044) 
1148.3649030992137

>  <distance_score>  (1044) 
13.49587215574615

>  <path>  (1044) 
/opt/xchem-fragalysis-2/maxwin/BulkDock/SCRATCH/511014/C6302-P65/C6302-P65.minimised.mol

>  <scratch_subdir>  (1044) 
/opt/xchem-fragalysis-2/maxwin/BulkDock/SCRATCH/511014/C6302-P65

>  <fragmenstein_runtime>  (1044) 
45.08022499084473

>  <fragmenstein_outcome>  (1044) 
too moved

>  <fragmenstein_mode>  (1044) 
expansion

>  <fragmenstein_error>  (1044) 


$$$$
C17635-P13
     RDKit          3D

 42 45  0  0  0  0  0  0  0  0999 V2000
    5.2219   -2.9052   24.6167 O   0  0  0  0  0  0  0  0  0  0  0  0
    4.9652   -1.7607   24.8321 C   0  0  0  0  0  0  0  0  0  0  0  0
    4.9511   -1.2357   26.2985 C   0  0  0  0  0  0  0  0  0  0  0  0
    3.7466   -1.5289   27.2156 C   0  0  0  0  0  0  0  0  0  0  0  0
    2.6628   -0.4708   27.3874 C   0  0  0  0  0  0  0  0  0  0  0  0
    2.8982    0.9108   27.2118 C   0  0  0  0  0  0  0  0  0  0  0  0
    1.8583    1.8489   27.3098 C   0  0  0  0  0  0  0  0  0  0  0  0
    0.5910    1.3857   27.5811 C   0  0  0  0  0  0  0  0  0  0  0  0
    0.3541    0.0584   27.8305 C   0  0  0  0  0  0  0  0  0  0  0  0
    1.3691   -0.8796   27.7820 C   0  0  0  0  0  0  0  0  0  0  0  0
   -0.9628   -0.1931   28.0642 O   0  0  0  0  0  0  0  0  0  0  0  0
   -1.5382    1.0912   27.7451 C   0  0  0  0  0  0  0  0  0  0  0  0
   -0.5462    2.1300   27.6012 O   0  0  0  0  0  0  0  0  0  0  0  0
    4.7324   -0.6510   23.9211 N   0  0  0  0  0  0  0  0  0  0  0  0
    4.8490   -0.5412   22.2078 C   0  0  0  0  0  0  0  0  0  0  0  0
    4.6252    1.2355   22.4441 C   0  0  0  0  0  0  0  0  0  0  0  0
    5.9834    1.9206   21.3539 C   0  0  0  0  0  0  0  0  0  0  0  0
    7.2610    1.6388   20.1155 C   0  0  0  0  0  0  0  0  0  0  0  0
    7.1723    0.3225   19.6638 C   0  0  0  0  0  0  0  0  0  0  0  0
    7.9997    0.3817   18.3386 C   0  0  0  0  0  0  0  0  0  0  0  0
    8.9517    1.3376   17.8815 C   0  0  0  0  0  0  0  0  0  0  0  0
    9.3460    0.9926   16.5724 C   0  0  0  0  0  0  0  0  0  0  0  0
    8.5820    0.0009   16.1392 N   0  0  0  0  0  0  0  0  0  0  0  0
    7.5800    0.0856   17.0339 N   0  0  0  0  0  0  0  0  0  0  0  0
    6.1889   -0.7138   20.8138 C   0  0  0  0  0  0  0  0  0  0  0  0
    5.2467   -0.1828   26.3176 H   0  0  0  0  0  0  0  0  0  0  0  0
    5.8148   -1.7478   26.7511 H   0  0  0  0  0  0  0  0  0  0  0  0
    3.2930   -2.4775   26.9076 H   0  0  0  0  0  0  0  0  0  0  0  0
    4.1422   -1.6974   28.2269 H   0  0  0  0  0  0  0  0  0  0  0  0
    3.8911    1.2879   26.9839 H   0  0  0  0  0  0  0  0  0  0  0  0
    2.0375    2.9052   27.1407 H   0  0  0  0  0  0  0  0  0  0  0  0
    1.1383   -1.9236   27.9694 H   0  0  0  0  0  0  0  0  0  0  0  0
   -2.2295    1.3706   28.5433 H   0  0  0  0  0  0  0  0  0  0  0  0
   -2.1028    1.0052   26.8081 H   0  0  0  0  0  0  0  0  0  0  0  0
    4.4579    0.1603   24.4509 H   0  0  0  0  0  0  0  0  0  0  0  0
    4.3281    1.7667   23.3484 H   0  0  0  0  0  0  0  0  0  0  0  0
    5.1006    1.0152   20.8114 H   0  0  0  0  0  0  0  0  0  0  0  0
    7.7630    2.5153   19.7237 H   0  0  0  0  0  0  0  0  0  0  0  0
    9.3531    2.1773   18.4304 H   0  0  0  0  0  0  0  0  0  0  0  0
   10.1148    1.4150   15.9390 H   0  0  0  0  0  0  0  0  0  0  0  0
    6.6306   -0.1431   16.7642 H   0  0  0  0  0  0  0  0  0  0  0  0
    6.1094   -1.8024   20.5766 H   0  0  0  0  0  0  0  0  0  0  0  0
  1  2  2  0
  2  3  1  0
  3  4  1  0
  4  5  1  0
  5  6  2  0
  6  7  1  0
  7  8  2  0
  8  9  1  0
  9 10  2  0
  9 11  1  0
 11 12  1  0
 12 13  1  0
  2 14  1  0
 14 15  1  0
 15 16  2  0
 16 17  1  0
 17 18  2  0
 18 19  1  0
 19 20  1  0
 20 21  2  0
 21 22  1  0
 22 23  2  0
 23 24  1  0
 19 25  2  0
 10  5  1  0
 25 15  1  0
 13  8  1  0
 24 20  1  0
  3 26  1  0
  3 27  1  0
  4 28  1  0
  4 29  1  0
  6 30  1  0
  7 31  1  0
 10 32  1  0
 12 33  1  0
 12 34  1  0
 14 35  1  0
 16 36  1  0
 17 37  1  0
 18 38  1  0
 21 39  1  0
 22 40  1  0
 24 41  1  0
 25 42  1  0
M  END
>  <Energy>  (1045) 
559.49605364867352

>  <compound_id>  (1045) 
17635

>  <target_id>  (1045) 
1

>  <reference_id>  (1045) 
13

>  <inspiration_ids>  (1045) 
[13, 122]

>  <energy_score>  (1045) 
499.1219536516596

>  <distance_score>  (1045) 
5.740269621005143

>  <path>  (1045) 
/opt/xchem-fragalysis-2/maxwin/BulkDock/SCRATCH/511014/C17635-P13/C17635-P13.minimised.mol

>  <scratch_subdir>  (1045) 
/opt/xchem-fragalysis-2/maxwin/BulkDock/SCRATCH/511014/C17635-P13

>  <fragmenstein_runtime>  (1045) 
10.707527160644531

>  <fragmenstein_outcome>  (1045) 
too moved

>  <fragmenstein_mode>  (1045) 
expansion

>  <fragmenstein_error>  (1045) 


$$$$
C17635-P122
     RDKit          3D

 42 45  0  0  0  0  0  0  0  0999 V2000
    1.7464   -4.0088   22.1819 O   0  0  0  0  0  0  0  0  0  0  0  0
    2.9416   -3.6640   22.1057 C   0  0  0  0  0  0  0  0  0  0  0  0
    3.6050   -2.5881   23.6201 C   0  0  0  0  0  0  0  0  0  0  0  0
    3.6426   -1.6572   25.0552 C   0  0  0  0  0  0  0  0  0  0  0  0
    2.8543   -1.3350   26.3423 C   0  0  0  0  0  0  0  0  0  0  0  0
    2.2407   -2.2712   27.1897 C   0  0  0  0  0  0  0  0  0  0  0  0
    1.3710   -1.8856   28.2285 C   0  0  0  0  0  0  0  0  0  0  0  0
    1.1490   -0.5439   28.4266 C   0  0  0  0  0  0  0  0  0  0  0  0
    1.8378    0.3916   27.7064 C   0  0  0  0  0  0  0  0  0  0  0  0
    2.7416    0.0274   26.7255 C   0  0  0  0  0  0  0  0  0  0  0  0
    1.4604    1.6634   28.0077 O   0  0  0  0  0  0  0  0  0  0  0  0
    0.4054    1.4110   28.9551 C   0  0  0  0  0  0  0  0  0  0  0  0
    0.2536    0.0142   29.2845 O   0  0  0  0  0  0  0  0  0  0  0  0
    4.1721   -4.0930   20.6775 N   0  0  0  0  0  0  0  0  0  0  0  0
    3.8630   -4.9944   19.0015 C   0  0  0  0  0  0  0  0  0  0  0  0
    2.9625   -5.9547   18.6054 C   0  0  0  0  0  0  0  0  0  0  0  0
    2.6854   -6.1208   17.1593 C   0  0  0  0  0  0  0  0  0  0  0  0
    3.2212   -5.3087   16.0069 C   0  0  0  0  0  0  0  0  0  0  0  0
    4.0651   -4.2037   16.1830 C   0  0  0  0  0  0  0  0  0  0  0  0
    5.1360   -3.1357   15.0354 C   0  0  0  0  0  0  0  0  0  0  0  0
    6.5026   -2.6672   14.8991 C   0  0  0  0  0  0  0  0  0  0  0  0
    6.6941   -1.9727   13.7077 C   0  0  0  0  0  0  0  0  0  0  0  0
    5.5944   -1.9157   12.9992 N   0  0  0  0  0  0  0  0  0  0  0  0
    4.7302   -2.6420   13.7059 N   0  0  0  0  0  0  0  0  0  0  0  0
    3.9308   -4.0404   17.5690 C   0  0  0  0  0  0  0  0  0  0  0  0
    3.7651   -3.3971   24.3236 H   0  0  0  0  0  0  0  0  0  0  0  0
    4.5318   -2.1457   23.2245 H   0  0  0  0  0  0  0  0  0  0  0  0
    4.5820   -2.0054   25.5090 H   0  0  0  0  0  0  0  0  0  0  0  0
    3.9771   -0.6709   24.7454 H   0  0  0  0  0  0  0  0  0  0  0  0
    2.3448   -3.3233   26.9841 H   0  0  0  0  0  0  0  0  0  0  0  0
    0.8391   -2.6312   28.8069 H   0  0  0  0  0  0  0  0  0  0  0  0
    3.2411    0.8041   26.1545 H   0  0  0  0  0  0  0  0  0  0  0  0
   -0.5400    1.7797   28.5392 H   0  0  0  0  0  0  0  0  0  0  0  0
    0.6221    1.9643   29.8760 H   0  0  0  0  0  0  0  0  0  0  0  0
    5.0623   -3.6030   20.8236 H   0  0  0  0  0  0  0  0  0  0  0  0
    2.3502   -6.5216   19.2940 H   0  0  0  0  0  0  0  0  0  0  0  0
    1.9760   -6.9108   16.8930 H   0  0  0  0  0  0  0  0  0  0  0  0
    2.9259   -5.6357   15.0110 H   0  0  0  0  0  0  0  0  0  0  0  0
    7.3605   -2.8244   15.5211 H   0  0  0  0  0  0  0  0  0  0  0  0
    7.5767   -1.4979   13.3234 H   0  0  0  0  0  0  0  0  0  0  0  0
    3.8407   -2.8543   13.2596 H   0  0  0  0  0  0  0  0  0  0  0  0
    4.0429   -2.9356   17.7035 H   0  0  0  0  0  0  0  0  0  0  0  0
  1  2  2  0
  2  3  1  0
  3  4  1  0
  4  5  1  0
  5  6  2  0
  6  7  1  0
  7  8  2  0
  8  9  1  0
  9 10  2  0
  9 11  1  0
 11 12  1  0
 12 13  1  0
  2 14  1  0
 14 15  1  0
 15 16  2  0
 16 17  1  0
 17 18  2  0
 18 19  1  0
 19 20  1  0
 20 21  2  0
 21 22  1  0
 22 23  2  0
 23 24  1  0
 19 25  2  0
 10  5  1  0
 25 15  1  0
 13  8  1  0
 24 20  1  0
  3 26  1  0
  3 27  1  0
  4 28  1  0
  4 29  1  0
  6 30  1  0
  7 31  1  0
 10 32  1  0
 12 33  1  0
 12 34  1  0
 14 35  1  0
 16 36  1  0
 17 37  1  0
 18 38  1  0
 21 39  1  0
 22 40  1  0
 24 41  1  0
 25 42  1  0
M  END
>  <Energy>  (1046) 
499.13293945204754

>  <compound_id>  (1046) 
17635

>  <target_id>  (1046) 
1

>  <reference_id>  (1046) 
122

>  <inspiration_ids>  (1046) 
[13, 122]

>  <energy_score>  (1046) 
438.7588394550434

>  <distance_score>  (1046) 
7.266722743447378

>  <path>  (1046) 
/opt/xchem-fragalysis-2/maxwin/BulkDock/SCRATCH/511014/C17635-P122/C17635-P122.minimised.mol

>  <scratch_subdir>  (1046) 
/opt/xchem-fragalysis-2/maxwin/BulkDock/SCRATCH/511014/C17635-P122

>  <fragmenstein_runtime>  (1046) 
13.112645864486694

>  <fragmenstein_outcome>  (1046) 
too moved

>  <fragmenstein_mode>  (1046) 
expansion

>  <fragmenstein_error>  (1046) 


$$$$
C17635-P13
     RDKit          3D

 42 45  0  0  0  0  0  0  0  0999 V2000
    5.2219   -2.9052   24.6167 O   0  0  0  0  0  0  0  0  0  0  0  0
    4.9652   -1.7607   24.8321 C   0  0  0  0  0  0  0  0  0  0  0  0
    4.9511   -1.2357   26.2985 C   0  0  0  0  0  0  0  0  0  0  0  0
    3.7466   -1.5289   27.2156 C   0  0  0  0  0  0  0  0  0  0  0  0
    2.6628   -0.4708   27.3874 C   0  0  0  0  0  0  0  0  0  0  0  0
    2.8982    0.9108   27.2118 C   0  0  0  0  0  0  0  0  0  0  0  0
    1.8583    1.8489   27.3098 C   0  0  0  0  0  0  0  0  0  0  0  0
    0.5910    1.3857   27.5811 C   0  0  0  0  0  0  0  0  0  0  0  0
    0.3541    0.0584   27.8305 C   0  0  0  0  0  0  0  0  0  0  0  0
    1.3691   -0.8796   27.7820 C   0  0  0  0  0  0  0  0  0  0  0  0
   -0.9628   -0.1931   28.0642 O   0  0  0  0  0  0  0  0  0  0  0  0
   -1.5382    1.0912   27.7451 C   0  0  0  0  0  0  0  0  0  0  0  0
   -0.5462    2.1300   27.6012 O   0  0  0  0  0  0  0  0  0  0  0  0
    4.7324   -0.6510   23.9211 N   0  0  0  0  0  0  0  0  0  0  0  0
    4.8490   -0.5412   22.2078 C   0  0  0  0  0  0  0  0  0  0  0  0
    4.6252    1.2355   22.4441 C   0  0  0  0  0  0  0  0  0  0  0  0
    5.9834    1.9206   21.3539 C   0  0  0  0  0  0  0  0  0  0  0  0
    7.2610    1.6388   20.1155 C   0  0  0  0  0  0  0  0  0  0  0  0
    7.1723    0.3225   19.6638 C   0  0  0  0  0  0  0  0  0  0  0  0
    7.9997    0.3817   18.3386 C   0  0  0  0  0  0  0  0  0  0  0  0
    8.9517    1.3376   17.8815 C   0  0  0  0  0  0  0  0  0  0  0  0
    9.3460    0.9926   16.5724 C   0  0  0  0  0  0  0  0  0  0  0  0
    8.5820    0.0009   16.1392 N   0  0  0  0  0  0  0  0  0  0  0  0
    7.5800    0.0856   17.0339 N   0  0  0  0  0  0  0  0  0  0  0  0
    6.1889   -0.7138   20.8138 C   0  0  0  0  0  0  0  0  0  0  0  0
    5.2467   -0.1828   26.3176 H   0  0  0  0  0  0  0  0  0  0  0  0
    5.8148   -1.7478   26.7511 H   0  0  0  0  0  0  0  0  0  0  0  0
    3.2930   -2.4775   26.9076 H   0  0  0  0  0  0  0  0  0  0  0  0
    4.1422   -1.6974   28.2269 H   0  0  0  0  0  0  0  0  0  0  0  0
    3.8911    1.2879   26.9839 H   0  0  0  0  0  0  0  0  0  0  0  0
    2.0375    2.9052   27.1407 H   0  0  0  0  0  0  0  0  0  0  0  0
    1.1383   -1.9236   27.9694 H   0  0  0  0  0  0  0  0  0  0  0  0
   -2.2295    1.3706   28.5433 H   0  0  0  0  0  0  0  0  0  0  0  0
   -2.1028    1.0052   26.8081 H   0  0  0  0  0  0  0  0  0  0  0  0
    4.4579    0.1603   24.4509 H   0  0  0  0  0  0  0  0  0  0  0  0
    4.3281    1.7667   23.3484 H   0  0  0  0  0  0  0  0  0  0  0  0
    5.1006    1.0152   20.8114 H   0  0  0  0  0  0  0  0  0  0  0  0
    7.7630    2.5153   19.7237 H   0  0  0  0  0  0  0  0  0  0  0  0
    9.3531    2.1773   18.4304 H   0  0  0  0  0  0  0  0  0  0  0  0
   10.1148    1.4150   15.9390 H   0  0  0  0  0  0  0  0  0  0  0  0
    6.6306   -0.1431   16.7642 H   0  0  0  0  0  0  0  0  0  0  0  0
    6.1094   -1.8024   20.5766 H   0  0  0  0  0  0  0  0  0  0  0  0
  1  2  2  0
  2  3  1  0
  3  4  1  0
  4  5  1  0
  5  6  2  0
  6  7  1  0
  7  8  2  0
  8  9  1  0
  9 10  2  0
  9 11  1  0
 11 12  1  0
 12 13  1  0
  2 14  1  0
 14 15  1  0
 15 16  2  0
 16 17  1  0
 17 18  2  0
 18 19  1  0
 19 20  1  0
 20 21  2  0
 21 22  1  0
 22 23  2  0
 23 24  1  0
 19 25  2  0
 10  5  1  0
 25 15  1  0
 13  8  1  0
 24 20  1  0
  3 26  1  0
  3 27  1  0
  4 28  1  0
  4 29  1  0
  6 30  1  0
  7 31  1  0
 10 32  1  0
 12 33  1  0
 12 34  1  0
 14 35  1  0
 16 36  1  0
 17 37  1  0
 18 38  1  0
 21 39  1  0
 22 40  1  0
 24 41  1  0
 25 42  1  0
M  END
>  <Energy>  (1047) 
559.49605364867352

>  <compound_id>  (1047) 
17635

>  <target_id>  (1047) 
1

>  <reference_id>  (1047) 
13

>  <inspiration_ids>  (1047) 
[13, 122]

>  <energy_score>  (1047) 
499.1219536516596

>  <distance_score>  (1047) 
5.740269621005143

>  <path>  (1047) 
/opt/xchem-fragalysis-2/maxwin/BulkDock/SCRATCH/511014/C17635-P13/C17635-P13.minimised.mol

>  <scratch_subdir>  (1047) 
/opt/xchem-fragalysis-2/maxwin/BulkDock/SCRATCH/511014/C17635-P13

>  <fragmenstein_runtime>  (1047) 
11.370916366577148

>  <fragmenstein_outcome>  (1047) 
too moved

>  <fragmenstein_mode>  (1047) 
expansion

>  <fragmenstein_error>  (1047) 


$$$$
C17635-P122
     RDKit          3D

 42 45  0  0  0  0  0  0  0  0999 V2000
    1.7464   -4.0088   22.1819 O   0  0  0  0  0  0  0  0  0  0  0  0
    2.9416   -3.6640   22.1057 C   0  0  0  0  0  0  0  0  0  0  0  0
    3.6050   -2.5881   23.6201 C   0  0  0  0  0  0  0  0  0  0  0  0
    3.6426   -1.6572   25.0552 C   0  0  0  0  0  0  0  0  0  0  0  0
    2.8543   -1.3350   26.3423 C   0  0  0  0  0  0  0  0  0  0  0  0
    2.2407   -2.2712   27.1897 C   0  0  0  0  0  0  0  0  0  0  0  0
    1.3710   -1.8856   28.2285 C   0  0  0  0  0  0  0  0  0  0  0  0
    1.1490   -0.5439   28.4266 C   0  0  0  0  0  0  0  0  0  0  0  0
    1.8378    0.3916   27.7064 C   0  0  0  0  0  0  0  0  0  0  0  0
    2.7416    0.0274   26.7255 C   0  0  0  0  0  0  0  0  0  0  0  0
    1.4604    1.6634   28.0077 O   0  0  0  0  0  0  0  0  0  0  0  0
    0.4054    1.4110   28.9551 C   0  0  0  0  0  0  0  0  0  0  0  0
    0.2536    0.0142   29.2845 O   0  0  0  0  0  0  0  0  0  0  0  0
    4.1721   -4.0930   20.6775 N   0  0  0  0  0  0  0  0  0  0  0  0
    3.8630   -4.9944   19.0015 C   0  0  0  0  0  0  0  0  0  0  0  0
    2.9625   -5.9547   18.6054 C   0  0  0  0  0  0  0  0  0  0  0  0
    2.6854   -6.1208   17.1593 C   0  0  0  0  0  0  0  0  0  0  0  0
    3.2212   -5.3087   16.0069 C   0  0  0  0  0  0  0  0  0  0  0  0
    4.0651   -4.2037   16.1830 C   0  0  0  0  0  0  0  0  0  0  0  0
    5.1360   -3.1357   15.0354 C   0  0  0  0  0  0  0  0  0  0  0  0
    6.5026   -2.6672   14.8991 C   0  0  0  0  0  0  0  0  0  0  0  0
    6.6941   -1.9727   13.7077 C   0  0  0  0  0  0  0  0  0  0  0  0
    5.5944   -1.9157   12.9992 N   0  0  0  0  0  0  0  0  0  0  0  0
    4.7302   -2.6420   13.7059 N   0  0  0  0  0  0  0  0  0  0  0  0
    3.9308   -4.0404   17.5690 C   0  0  0  0  0  0  0  0  0  0  0  0
    3.7651   -3.3971   24.3236 H   0  0  0  0  0  0  0  0  0  0  0  0
    4.5318   -2.1457   23.2245 H   0  0  0  0  0  0  0  0  0  0  0  0
    4.5820   -2.0054   25.5090 H   0  0  0  0  0  0  0  0  0  0  0  0
    3.9771   -0.6709   24.7454 H   0  0  0  0  0  0  0  0  0  0  0  0
    2.3448   -3.3233   26.9841 H   0  0  0  0  0  0  0  0  0  0  0  0
    0.8391   -2.6312   28.8069 H   0  0  0  0  0  0  0  0  0  0  0  0
    3.2411    0.8041   26.1545 H   0  0  0  0  0  0  0  0  0  0  0  0
   -0.5400    1.7797   28.5392 H   0  0  0  0  0  0  0  0  0  0  0  0
    0.6221    1.9643   29.8760 H   0  0  0  0  0  0  0  0  0  0  0  0
    5.0623   -3.6030   20.8236 H   0  0  0  0  0  0  0  0  0  0  0  0
    2.3502   -6.5216   19.2940 H   0  0  0  0  0  0  0  0  0  0  0  0
    1.9760   -6.9108   16.8930 H   0  0  0  0  0  0  0  0  0  0  0  0
    2.9259   -5.6357   15.0110 H   0  0  0  0  0  0  0  0  0  0  0  0
    7.3605   -2.8244   15.5211 H   0  0  0  0  0  0  0  0  0  0  0  0
    7.5767   -1.4979   13.3234 H   0  0  0  0  0  0  0  0  0  0  0  0
    3.8407   -2.8543   13.2596 H   0  0  0  0  0  0  0  0  0  0  0  0
    4.0429   -2.9356   17.7035 H   0  0  0  0  0  0  0  0  0  0  0  0
  1  2  2  0
  2  3  1  0
  3  4  1  0
  4  5  1  0
  5  6  2  0
  6  7  1  0
  7  8  2  0
  8  9  1  0
  9 10  2  0
  9 11  1  0
 11 12  1  0
 12 13  1  0
  2 14  1  0
 14 15  1  0
 15 16  2  0
 16 17  1  0
 17 18  2  0
 18 19  1  0
 19 20  1  0
 20 21  2  0
 21 22  1  0
 22 23  2  0
 23 24  1  0
 19 25  2  0
 10  5  1  0
 25 15  1  0
 13  8  1  0
 24 20  1  0
  3 26  1  0
  3 27  1  0
  4 28  1  0
  4 29  1  0
  6 30  1  0
  7 31  1  0
 10 32  1  0
 12 33  1  0
 12 34  1  0
 14 35  1  0
 16 36  1  0
 17 37  1  0
 18 38  1  0
 21 39  1  0
 22 40  1  0
 24 41  1  0
 25 42  1  0
M  END
>  <Energy>  (1048) 
499.13293945204754

>  <compound_id>  (1048) 
17635

>  <target_id>  (1048) 
1

>  <reference_id>  (1048) 
122

>  <inspiration_ids>  (1048) 
[13, 122]

>  <energy_score>  (1048) 
438.7588394550434

>  <distance_score>  (1048) 
7.266722743447378

>  <path>  (1048) 
/opt/xchem-fragalysis-2/maxwin/BulkDock/SCRATCH/511014/C17635-P122/C17635-P122.minimised.mol

>  <scratch_subdir>  (1048) 
/opt/xchem-fragalysis-2/maxwin/BulkDock/SCRATCH/511014/C17635-P122

>  <fragmenstein_runtime>  (1048) 
11.975467681884766

>  <fragmenstein_outcome>  (1048) 
too moved

>  <fragmenstein_mode>  (1048) 
expansion

>  <fragmenstein_error>  (1048) 


$$$$
C17638-P13
     RDKit          3D

 43 46  0  0  0  0  0  0  0  0999 V2000
    4.5913   -2.5611   28.5755 C   0  0  0  0  0  0  0  0  0  0  0  0
    3.6843   -2.3902   27.3495 C   0  0  0  0  0  0  0  0  0  0  0  0
    4.4478   -2.4943   26.0671 N   0  0  0  0  0  0  0  0  0  0  0  0
    4.9505   -3.8476   25.7762 C   0  0  0  0  0  0  0  0  0  0  0  0
    5.7287   -4.0609   24.4820 C   0  0  0  0  0  0  0  0  0  0  0  0
    5.9791   -3.1051   23.2733 C   0  0  0  0  0  0  0  0  0  0  0  0
    6.9093   -3.2129   21.7199 C   0  0  0  0  0  0  0  0  0  0  0  0
    7.6390   -4.4016   21.1940 C   0  0  0  0  0  0  0  0  0  0  0  0
    9.6487   -4.8720   20.9856 C   0  0  0  0  0  0  0  0  0  0  0  0
   10.9627   -4.1919   21.8083 C   0  0  0  0  0  0  0  0  0  0  0  0
   11.9998   -5.1155   21.9408 C   0  0  0  0  0  0  0  0  0  0  0  0
   11.5055   -6.2215   21.4260 N   0  0  0  0  0  0  0  0  0  0  0  0
   10.6245   -5.6667   20.5392 N   0  0  0  0  0  0  0  0  0  0  0  0
    6.8413   -5.3419   22.5956 C   0  0  0  0  0  0  0  0  0  0  0  0
    6.1432   -5.2871   24.0499 C   0  0  0  0  0  0  0  0  0  0  0  0
    2.9318   -1.0624   27.4834 C   0  0  0  0  0  0  0  0  0  0  0  0
    3.5494    0.1720   27.2038 C   0  0  0  0  0  0  0  0  0  0  0  0
    2.8547    1.3935   27.3268 C   0  0  0  0  0  0  0  0  0  0  0  0
    1.5209    1.4190   27.7305 C   0  0  0  0  0  0  0  0  0  0  0  0
    0.9208    0.2118   28.0044 C   0  0  0  0  0  0  0  0  0  0  0  0
    1.6015   -0.9883   27.9023 C   0  0  0  0  0  0  0  0  0  0  0  0
    0.7946   -2.0375   28.2351 O   0  0  0  0  0  0  0  0  0  0  0  0
   -0.4761   -1.3718   28.4235 C   0  0  0  0  0  0  0  0  0  0  0  0
   -0.3762    0.0621   28.3880 O   0  0  0  0  0  0  0  0  0  0  0  0
    5.4072   -1.8290   28.5804 H   0  0  0  0  0  0  0  0  0  0  0  0
    4.0235   -2.4265   29.5038 H   0  0  0  0  0  0  0  0  0  0  0  0
    5.0344   -3.5608   28.6148 H   0  0  0  0  0  0  0  0  0  0  0  0
    2.9402   -3.1962   27.3553 H   0  0  0  0  0  0  0  0  0  0  0  0
    5.2573   -1.8750   26.1062 H   0  0  0  0  0  0  0  0  0  0  0  0
    5.6184   -4.1715   26.5817 H   0  0  0  0  0  0  0  0  0  0  0  0
    4.0945   -4.5327   25.7566 H   0  0  0  0  0  0  0  0  0  0  0  0
    5.2981   -2.2224   23.3744 H   0  0  0  0  0  0  0  0  0  0  0  0
    6.1245   -2.7779   21.0082 H   0  0  0  0  0  0  0  0  0  0  0  0
   10.9308   -3.2798   22.3839 H   0  0  0  0  0  0  0  0  0  0  0  0
   12.9247   -5.0891   22.4996 H   0  0  0  0  0  0  0  0  0  0  0  0
   11.0586   -5.3215   19.6894 H   0  0  0  0  0  0  0  0  0  0  0  0
    6.5563   -6.3820   22.2913 H   0  0  0  0  0  0  0  0  0  0  0  0
    5.8861   -6.2155   24.5452 H   0  0  0  0  0  0  0  0  0  0  0  0
    4.5850    0.2013   26.8710 H   0  0  0  0  0  0  0  0  0  0  0  0
    3.3651    2.3248   27.0912 H   0  0  0  0  0  0  0  0  0  0  0  0
    0.9727    2.3502   27.8166 H   0  0  0  0  0  0  0  0  0  0  0  0
   -0.8738   -1.6671   29.4011 H   0  0  0  0  0  0  0  0  0  0  0  0
   -1.1801   -1.7013   27.6529 H   0  0  0  0  0  0  0  0  0  0  0  0
  1  2  1  0
  2  3  1  0
  3  4  1  0
  4  5  1  0
  5  6  2  0
  6  7  1  0
  7  8  2  0
  8  9  1  0
  9 10  2  0
 10 11  1  0
 11 12  2  0
 12 13  1  0
  8 14  1  0
 14 15  2  0
  2 16  1  0
 16 17  2  0
 17 18  1  0
 18 19  2  0
 19 20  1  0
 20 21  2  0
 21 22  1  0
 22 23  1  0
 23 24  1  0
 15  5  1  0
 21 16  1  0
 13  9  1  0
 24 20  1  0
  1 25  1  0
  1 26  1  0
  1 27  1  0
  2 28  1  0
  3 29  1  0
  4 30  1  0
  4 31  1  0
  6 32  1  0
  7 33  1  0
 10 34  1  0
 11 35  1  0
 13 36  1  0
 14 37  1  0
 15 38  1  0
 17 39  1  0
 18 40  1  0
 19 41  1  0
 23 42  1  0
 23 43  1  0
M  END
>  <Energy>  (1049) 
464.10272574928763

>  <compound_id>  (1049) 
17638

>  <target_id>  (1049) 
1

>  <reference_id>  (1049) 
13

>  <inspiration_ids>  (1049) 
[13, 122]

>  <energy_score>  (1049) 
377.0906689301118

>  <distance_score>  (1049) 
6.368416158839622

>  <path>  (1049) 
/opt/xchem-fragalysis-2/maxwin/BulkDock/SCRATCH/511014/C17638-P13/C17638-P13.minimised.mol

>  <scratch_subdir>  (1049) 
/opt/xchem-fragalysis-2/maxwin/BulkDock/SCRATCH/511014/C17638-P13

>  <fragmenstein_runtime>  (1049) 
6.3483476638793945

>  <fragmenstein_outcome>  (1049) 
too moved

>  <fragmenstein_mode>  (1049) 
expansion

>  <fragmenstein_error>  (1049) 


$$$$
C17638-P122
     RDKit          3D

 43 46  0  0  0  0  0  0  0  0999 V2000
    4.1322   -1.2856   27.9500 C   0  0  0  0  0  0  0  0  0  0  0  0
    3.2345   -0.9307   26.7511 C   0  0  0  0  0  0  0  0  0  0  0  0
    4.0202   -0.6905   25.4883 N   0  0  0  0  0  0  0  0  0  0  0  0
    4.7926   -1.8984   25.1168 C   0  0  0  0  0  0  0  0  0  0  0  0
    5.6076   -2.2693   23.8346 C   0  0  0  0  0  0  0  0  0  0  0  0
    6.7032   -3.5291   23.8928 C   0  0  0  0  0  0  0  0  0  0  0  0
    7.5677   -4.1947   22.7199 C   0  0  0  0  0  0  0  0  0  0  0  0
    8.3404   -3.5364   21.2738 C   0  0  0  0  0  0  0  0  0  0  0  0
   10.5913   -3.3506   21.2301 C   0  0  0  0  0  0  0  0  0  0  0  0
   11.7544   -4.5053   20.8486 C   0  0  0  0  0  0  0  0  0  0  0  0
   13.0552   -4.2235   21.2123 C   0  0  0  0  0  0  0  0  0  0  0  0
   13.0039   -3.6012   22.3553 N   0  0  0  0  0  0  0  0  0  0  0  0
   11.6679   -3.4604   22.5921 N   0  0  0  0  0  0  0  0  0  0  0  0
    6.5292   -2.8853   21.1092 C   0  0  0  0  0  0  0  0  0  0  0  0
    5.4872   -2.0961   22.3707 C   0  0  0  0  0  0  0  0  0  0  0  0
    2.3762    0.2593   27.1794 C   0  0  0  0  0  0  0  0  0  0  0  0
    2.8508    1.5785   27.0997 C   0  0  0  0  0  0  0  0  0  0  0  0
    2.0353    2.6757   27.4389 C   0  0  0  0  0  0  0  0  0  0  0  0
    0.7261    2.4825   27.8804 C   0  0  0  0  0  0  0  0  0  0  0  0
    0.2809    1.1858   27.9966 C   0  0  0  0  0  0  0  0  0  0  0  0
    1.0826    0.1070   27.6792 C   0  0  0  0  0  0  0  0  0  0  0  0
    0.4300   -1.0699   27.8913 O   0  0  0  0  0  0  0  0  0  0  0  0
   -0.8640   -0.6104   28.3263 C   0  0  0  0  0  0  0  0  0  0  0  0
   -0.9626    0.8219   28.4136 O   0  0  0  0  0  0  0  0  0  0  0  0
    3.5471   -1.3606   28.8745 H   0  0  0  0  0  0  0  0  0  0  0  0
    4.6265   -2.2522   27.8165 H   0  0  0  0  0  0  0  0  0  0  0  0
    4.9055   -0.5254   28.1113 H   0  0  0  0  0  0  0  0  0  0  0  0
    2.5651   -1.7782   26.5721 H   0  0  0  0  0  0  0  0  0  0  0  0
    3.3990   -0.4967   24.6979 H   0  0  0  0  0  0  0  0  0  0  0  0
    4.1060   -2.7400   25.2520 H   0  0  0  0  0  0  0  0  0  0  0  0
    5.5826   -1.8237   25.8670 H   0  0  0  0  0  0  0  0  0  0  0  0
    7.3016   -3.4009   24.8168 H   0  0  0  0  0  0  0  0  0  0  0  0
    7.8037   -5.2192   23.0320 H   0  0  0  0  0  0  0  0  0  0  0  0
   11.5376   -5.3271   20.1809 H   0  0  0  0  0  0  0  0  0  0  0  0
   13.9936   -4.6094   20.8422 H   0  0  0  0  0  0  0  0  0  0  0  0
   11.4417   -2.9405   23.4253 H   0  0  0  0  0  0  0  0  0  0  0  0
    5.7567   -3.2168   20.3606 H   0  0  0  0  0  0  0  0  0  0  0  0
    5.0553   -1.1504   22.0506 H   0  0  0  0  0  0  0  0  0  0  0  0
    3.8684    1.7572   26.7597 H   0  0  0  0  0  0  0  0  0  0  0  0
    2.4313    3.6847   27.3478 H   0  0  0  0  0  0  0  0  0  0  0  0
    0.0865    3.3215   28.1310 H   0  0  0  0  0  0  0  0  0  0  0  0
   -1.6287   -0.9730   27.6313 H   0  0  0  0  0  0  0  0  0  0  0  0
   -1.0688   -1.0350   29.3159 H   0  0  0  0  0  0  0  0  0  0  0  0
  1  2  1  0
  2  3  1  0
  3  4  1  0
  4  5  1  0
  5  6  2  0
  6  7  1  0
  7  8  2  0
  8  9  1  0
  9 10  2  0
 10 11  1  0
 11 12  2  0
 12 13  1  0
  8 14  1  0
 14 15  2  0
  2 16  1  0
 16 17  2  0
 17 18  1  0
 18 19  2  0
 19 20  1  0
 20 21  2  0
 21 22  1  0
 22 23  1  0
 23 24  1  0
 15  5  1  0
 21 16  1  0
 13  9  1  0
 24 20  1  0
  1 25  1  0
  1 26  1  0
  1 27  1  0
  2 28  1  0
  3 29  1  0
  4 30  1  0
  4 31  1  0
  6 32  1  0
  7 33  1  0
 10 34  1  0
 11 35  1  0
 13 36  1  0
 14 37  1  0
 15 38  1  0
 17 39  1  0
 18 40  1  0
 19 41  1  0
 23 42  1  0
 23 43  1  0
M  END
>  <Energy>  (1050) 
790.83826887362579

>  <compound_id>  (1050) 
17638

>  <target_id>  (1050) 
1

>  <reference_id>  (1050) 
122

>  <inspiration_ids>  (1050) 
[13, 122]

>  <energy_score>  (1050) 
703.826212054448

>  <distance_score>  (1050) 
6.325893565872053

>  <path>  (1050) 
/opt/xchem-fragalysis-2/maxwin/BulkDock/SCRATCH/511014/C17638-P122/C17638-P122.minimised.mol

>  <scratch_subdir>  (1050) 
/opt/xchem-fragalysis-2/maxwin/BulkDock/SCRATCH/511014/C17638-P122

>  <fragmenstein_runtime>  (1050) 
9.297565937042236

>  <fragmenstein_outcome>  (1050) 
too moved

>  <fragmenstein_mode>  (1050) 
expansion

>  <fragmenstein_error>  (1050) 


$$$$
C17641-P13
     RDKit          3D

 51 54  0  0  0  0  0  0  0  0999 V2000
    3.4023    0.8951   25.9566 O   0  0  0  0  0  0  0  0  0  0  0  0
    4.2983   -0.1200   26.4294 C   0  0  0  0  0  0  0  0  0  0  0  0
    3.5097   -1.1174   27.3315 C   0  0  0  0  0  0  0  0  0  0  0  0
    3.2277   -0.7326   28.6821 O   0  0  0  0  0  0  0  0  0  0  0  0
    2.5371    0.5042   28.8453 C   0  0  0  0  0  0  0  0  0  0  0  0
    1.1262    0.5703   28.3065 C   0  0  0  0  0  0  0  0  0  0  0  0
    0.2242   -0.5062   28.4362 C   0  0  0  0  0  0  0  0  0  0  0  0
   -1.0879   -0.4047   27.9549 C   0  0  0  0  0  0  0  0  0  0  0  0
   -1.4745    0.7837   27.3727 C   0  0  0  0  0  0  0  0  0  0  0  0
   -0.6111    1.8413   27.2575 C   0  0  0  0  0  0  0  0  0  0  0  0
    0.6860    1.7668   27.7125 C   0  0  0  0  0  0  0  0  0  0  0  0
   -1.1757    2.9130   26.6410 O   0  0  0  0  0  0  0  0  0  0  0  0
   -2.5257    2.4407   26.4593 C   0  0  0  0  0  0  0  0  0  0  0  0
   -2.6924    1.0604   26.8381 O   0  0  0  0  0  0  0  0  0  0  0  0
    4.9395   -0.8387   25.1852 C   0  0  0  0  0  0  0  0  0  0  0  0
    5.5544    0.0684   24.1095 N   0  0  0  0  0  0  0  0  0  0  0  0
    7.5735   -0.0187   24.4337 C   0  0  0  0  0  0  0  0  0  0  0  0
    8.8654    0.4781   22.7098 C   0  0  0  0  0  0  0  0  0  0  0  0
    8.6033    0.1879   20.6159 C   0  0  0  0  0  0  0  0  0  0  0  0
    8.3845    1.2024   19.2306 C   0  0  0  0  0  0  0  0  0  0  0  0
    8.4159    0.9198   17.8678 C   0  0  0  0  0  0  0  0  0  0  0  0
    8.5177    2.1502   17.1940 C   0  0  0  0  0  0  0  0  0  0  0  0
    8.5311    3.1711   18.0363 N   0  0  0  0  0  0  0  0  0  0  0  0
    8.4670    2.5911   19.2397 N   0  0  0  0  0  0  0  0  0  0  0  0
    6.6099   -0.5317   20.7164 C   0  0  0  0  0  0  0  0  0  0  0  0
    5.1344   -0.7099   22.3188 C   0  0  0  0  0  0  0  0  0  0  0  0
    3.7609    1.1424   25.0733 H   0  0  0  0  0  0  0  0  0  0  0  0
    5.0809    0.3795   27.0102 H   0  0  0  0  0  0  0  0  0  0  0  0
    4.0821   -2.0479   27.4090 H   0  0  0  0  0  0  0  0  0  0  0  0
    2.5527   -1.3614   26.8828 H   0  0  0  0  0  0  0  0  0  0  0  0
    2.4732    0.6805   29.9259 H   0  0  0  0  0  0  0  0  0  0  0  0
    3.1576    1.3163   28.4511 H   0  0  0  0  0  0  0  0  0  0  0  0
    0.5531   -1.4360   28.8950 H   0  0  0  0  0  0  0  0  0  0  0  0
   -1.7748   -1.2429   28.0130 H   0  0  0  0  0  0  0  0  0  0  0  0
    1.3510    2.6165   27.5943 H   0  0  0  0  0  0  0  0  0  0  0  0
   -3.2014    3.0620   27.0555 H   0  0  0  0  0  0  0  0  0  0  0  0
   -2.7918    2.5476   25.4022 H   0  0  0  0  0  0  0  0  0  0  0  0
    4.1641   -1.4005   24.6791 H   0  0  0  0  0  0  0  0  0  0  0  0
    5.6678   -1.5765   25.5393 H   0  0  0  0  0  0  0  0  0  0  0  0
    7.6658    0.6957   25.3065 H   0  0  0  0  0  0  0  0  0  0  0  0
    7.7991   -0.9549   25.0036 H   0  0  0  0  0  0  0  0  0  0  0  0
    9.1961    1.5575   22.6688 H   0  0  0  0  0  0  0  0  0  0  0  0
    9.8738    0.3515   23.1377 H   0  0  0  0  0  0  0  0  0  0  0  0
    8.9808    1.2167   20.8495 H   0  0  0  0  0  0  0  0  0  0  0  0
    8.3940   -0.0025   17.3288 H   0  0  0  0  0  0  0  0  0  0  0  0
    8.5631    2.3351   16.1291 H   0  0  0  0  0  0  0  0  0  0  0  0
    8.5901    3.2135   20.0254 H   0  0  0  0  0  0  0  0  0  0  0  0
    6.5610   -1.5049   20.4418 H   0  0  0  0  0  0  0  0  0  0  0  0
    6.3272    0.2973   20.0686 H   0  0  0  0  0  0  0  0  0  0  0  0
    4.8600   -1.7120   22.6921 H   0  0  0  0  0  0  0  0  0  0  0  0
    4.4449   -0.0867   21.7789 H   0  0  0  0  0  0  0  0  0  0  0  0
  1  2  1  0
  2  3  1  0
  3  4  1  0
  4  5  1  0
  5  6  1  0
  6  7  2  0
  7  8  1  0
  8  9  2  0
  9 10  1  0
 10 11  2  0
 10 12  1  0
 12 13  1  0
 13 14  1  0
  2 15  1  0
 15 16  1  0
 16 17  1  0
 17 18  1  0
 18 19  1  0
 19 20  1  0
 20 21  2  0
 21 22  1  0
 22 23  2  0
 23 24  1  0
 19 25  1  0
 25 26  1  0
 11  6  1  0
 26 16  1  0
 14  9  1  0
 24 20  1  0
  1 27  1  0
  2 28  1  0
  3 29  1  0
  3 30  1  0
  5 31  1  0
  5 32  1  0
  7 33  1  0
  8 34  1  0
 11 35  1  0
 13 36  1  0
 13 37  1  0
 15 38  1  0
 15 39  1  0
 17 40  1  0
 17 41  1  0
 18 42  1  0
 18 43  1  0
 19 44  1  0
 21 45  1  0
 22 46  1  0
 24 47  1  0
 25 48  1  0
 25 49  1  0
 26 50  1  0
 26 51  1  0
M  END
>  <Energy>  (1051) 
765.91458407472567

>  <compound_id>  (1051) 
17641

>  <target_id>  (1051) 
1

>  <reference_id>  (1051) 
13

>  <inspiration_ids>  (1051) 
[13, 122]

>  <energy_score>  (1051) 
628.6918809183214

>  <distance_score>  (1051) 
5.282684025411518

>  <path>  (1051) 
/opt/xchem-fragalysis-2/maxwin/BulkDock/SCRATCH/511014/C17641-P13/C17641-P13.minimised.mol

>  <scratch_subdir>  (1051) 
/opt/xchem-fragalysis-2/maxwin/BulkDock/SCRATCH/511014/C17641-P13

>  <fragmenstein_runtime>  (1051) 
8.197766065597534

>  <fragmenstein_outcome>  (1051) 
too moved

>  <fragmenstein_mode>  (1051) 
expansion

>  <fragmenstein_error>  (1051) 


$$$$
C17641-P122
     RDKit          3D

 51 54  0  0  0  0  0  0  0  0999 V2000
    3.6407   -0.1215   30.1179 O   0  0  0  0  0  0  0  0  0  0  0  0
    3.9918   -0.6330   28.7875 C   0  0  0  0  0  0  0  0  0  0  0  0
    3.0542   -1.9080   28.6218 C   0  0  0  0  0  0  0  0  0  0  0  0
    1.8141   -1.7739   29.3835 O   0  0  0  0  0  0  0  0  0  0  0  0
    0.6094   -1.8224   28.6150 C   0  0  0  0  0  0  0  0  0  0  0  0
    0.0395   -0.4530   28.2958 C   0  0  0  0  0  0  0  0  0  0  0  0
    0.7520    0.7423   28.5284 C   0  0  0  0  0  0  0  0  0  0  0  0
    0.2754    1.9874   28.1124 C   0  0  0  0  0  0  0  0  0  0  0  0
   -0.9267    2.0191   27.4575 C   0  0  0  0  0  0  0  0  0  0  0  0
   -1.6569    0.8780   27.2505 C   0  0  0  0  0  0  0  0  0  0  0  0
   -1.2249   -0.3597   27.6902 C   0  0  0  0  0  0  0  0  0  0  0  0
   -2.7801    1.1264   26.5282 O   0  0  0  0  0  0  0  0  0  0  0  0
   -2.7206    2.5634   26.3908 C   0  0  0  0  0  0  0  0  0  0  0  0
   -1.5134    3.1257   26.9353 O   0  0  0  0  0  0  0  0  0  0  0  0
    5.7548   -0.7995   28.5796 C   0  0  0  0  0  0  0  0  0  0  0  0
    6.7705   -0.4896   27.3414 N   0  0  0  0  0  0  0  0  0  0  0  0
    7.4551    0.8476   27.3775 C   0  0  0  0  0  0  0  0  0  0  0  0
    8.6513    1.1743   26.3064 C   0  0  0  0  0  0  0  0  0  0  0  0
    9.6971    0.0877   25.8856 C   0  0  0  0  0  0  0  0  0  0  0  0
   10.5901    0.3505   24.5288 C   0  0  0  0  0  0  0  0  0  0  0  0
   10.5847    1.3234   23.5234 C   0  0  0  0  0  0  0  0  0  0  0  0
   11.7924    1.1934   22.8009 C   0  0  0  0  0  0  0  0  0  0  0  0
   12.5516    0.2315   23.3065 N   0  0  0  0  0  0  0  0  0  0  0  0
   11.7434   -0.3680   24.2134 N   0  0  0  0  0  0  0  0  0  0  0  0
    9.0383   -1.2859   26.1717 C   0  0  0  0  0  0  0  0  0  0  0  0
    7.9558   -1.4260   27.3461 C   0  0  0  0  0  0  0  0  0  0  0  0
    2.7960   -0.5574   30.3574 H   0  0  0  0  0  0  0  0  0  0  0  0
    3.6938    0.1428   28.0747 H   0  0  0  0  0  0  0  0  0  0  0  0
    2.8801   -2.1121   27.5600 H   0  0  0  0  0  0  0  0  0  0  0  0
    3.5736   -2.7692   29.0539 H   0  0  0  0  0  0  0  0  0  0  0  0
   -0.1241   -2.3513   29.2341 H   0  0  0  0  0  0  0  0  0  0  0  0
    0.7540   -2.4062   27.7018 H   0  0  0  0  0  0  0  0  0  0  0  0
    1.7054    0.7358   29.0356 H   0  0  0  0  0  0  0  0  0  0  0  0
    0.8458    2.8937   28.2830 H   0  0  0  0  0  0  0  0  0  0  0  0
   -1.8326   -1.2429   27.5215 H   0  0  0  0  0  0  0  0  0  0  0  0
   -2.7670    2.8126   25.3250 H   0  0  0  0  0  0  0  0  0  0  0  0
   -3.5871    3.0077   26.8860 H   0  0  0  0  0  0  0  0  0  0  0  0
    5.8906   -1.8730   28.7651 H   0  0  0  0  0  0  0  0  0  0  0  0
    6.1890   -0.2824   29.4447 H   0  0  0  0  0  0  0  0  0  0  0  0
    6.6919    1.6248   27.2539 H   0  0  0  0  0  0  0  0  0  0  0  0
    7.8927    0.9915   28.3747 H   0  0  0  0  0  0  0  0  0  0  0  0
    8.2179    1.5451   25.3947 H   0  0  0  0  0  0  0  0  0  0  0  0
    9.2002    2.0361   26.7107 H   0  0  0  0  0  0  0  0  0  0  0  0
   10.4783    0.1691   26.6602 H   0  0  0  0  0  0  0  0  0  0  0  0
    9.8460    2.1033   23.4015 H   0  0  0  0  0  0  0  0  0  0  0  0
   12.1743    1.8093   21.9984 H   0  0  0  0  0  0  0  0  0  0  0  0
   12.0880   -1.2091   24.6619 H   0  0  0  0  0  0  0  0  0  0  0  0
    9.8309   -2.0211   26.3604 H   0  0  0  0  0  0  0  0  0  0  0  0
    8.5441   -1.6154   25.2835 H   0  0  0  0  0  0  0  0  0  0  0  0
    7.5786   -2.4528   27.3008 H   0  0  0  0  0  0  0  0  0  0  0  0
    8.4879   -1.3315   28.3026 H   0  0  0  0  0  0  0  0  0  0  0  0
  1  2  1  0
  2  3  1  0
  3  4  1  0
  4  5  1  0
  5  6  1  0
  6  7  2  0
  7  8  1  0
  8  9  2  0
  9 10  1  0
 10 11  2  0
 10 12  1  0
 12 13  1  0
 13 14  1  0
  2 15  1  0
 15 16  1  0
 16 17  1  0
 17 18  1  0
 18 19  1  0
 19 20  1  0
 20 21  2  0
 21 22  1  0
 22 23  2  0
 23 24  1  0
 19 25  1  0
 25 26  1  0
 11  6  1  0
 26 16  1  0
 14  9  1  0
 24 20  1  0
  1 27  1  0
  2 28  1  0
  3 29  1  0
  3 30  1  0
  5 31  1  0
  5 32  1  0
  7 33  1  0
  8 34  1  0
 11 35  1  0
 13 36  1  0
 13 37  1  0
 15 38  1  0
 15 39  1  0
 17 40  1  0
 17 41  1  0
 18 42  1  0
 18 43  1  0
 19 44  1  0
 21 45  1  0
 22 46  1  0
 24 47  1  0
 25 48  1  0
 25 49  1  0
 26 50  1  0
 26 51  1  0
M  END
>  <Energy>  (1052) 
160.28672836549364

>  <compound_id>  (1052) 
17641

>  <target_id>  (1052) 
1

>  <reference_id>  (1052) 
122

>  <inspiration_ids>  (1052) 
[13, 122]

>  <energy_score>  (1052) 
31.276289618190333

>  <distance_score>  (1052) 
5.579531409990425

>  <path>  (1052) 
/opt/xchem-fragalysis-2/maxwin/BulkDock/SCRATCH/511014/C17641-P122/C17641-P122.minimised.mol

>  <scratch_subdir>  (1052) 
/opt/xchem-fragalysis-2/maxwin/BulkDock/SCRATCH/511014/C17641-P122

>  <fragmenstein_runtime>  (1052) 
8.81383490562439

>  <fragmenstein_outcome>  (1052) 
too moved

>  <fragmenstein_mode>  (1052) 
expansion

>  <fragmenstein_error>  (1052) 


$$$$
C17642-P13
     RDKit          3D

 34 37  0  0  0  0  0  0  0  0999 V2000
    4.4284   -2.2006   26.6998 C   0  0  0  0  0  0  0  0  0  0  0  0
    4.8319   -1.8774   25.3792 C   0  0  0  0  0  0  0  0  0  0  0  0
    4.5286   -0.6454   24.7998 C   0  0  0  0  0  0  0  0  0  0  0  0
    4.9766   -0.1880   23.5430 N   0  0  0  0  0  0  0  0  0  0  0  0
    5.1243   -0.8860   21.8120 C   0  0  0  0  0  0  0  0  0  0  0  0
    6.6833   -0.6528   20.4712 C   0  0  0  0  0  0  0  0  0  0  0  0
    6.7130    0.5243   19.7847 C   0  0  0  0  0  0  0  0  0  0  0  0
    7.6841    1.3370   19.2620 C   0  0  0  0  0  0  0  0  0  0  0  0
    8.1921    0.3196   18.5819 C   0  0  0  0  0  0  0  0  0  0  0  0
    8.8488    0.4822   17.2826 C   0  0  0  0  0  0  0  0  0  0  0  0
    9.4428    1.6231   16.7644 C   0  0  0  0  0  0  0  0  0  0  0  0
   10.0030    1.2441   15.5359 C   0  0  0  0  0  0  0  0  0  0  0  0
    9.7266   -0.0233   15.2471 N   0  0  0  0  0  0  0  0  0  0  0  0
    8.8814   -0.3866   16.2191 N   0  0  0  0  0  0  0  0  0  0  0  0
    8.0190   -0.8129   19.6812 O   0  0  0  0  0  0  0  0  0  0  0  0
    3.8606    0.2563   25.6582 C   0  0  0  0  0  0  0  0  0  0  0  0
    3.4425   -0.0634   26.9345 C   0  0  0  0  0  0  0  0  0  0  0  0
    3.7100   -1.2933   27.4835 C   0  0  0  0  0  0  0  0  0  0  0  0
    2.7620    0.9446   27.5445 O   0  0  0  0  0  0  0  0  0  0  0  0
    2.8702    1.9803   26.5515 C   0  0  0  0  0  0  0  0  0  0  0  0
    3.4903    1.5376   25.3291 O   0  0  0  0  0  0  0  0  0  0  0  0
    4.7003   -3.1717   27.1079 H   0  0  0  0  0  0  0  0  0  0  0  0
    5.4151   -2.6079   24.8319 H   0  0  0  0  0  0  0  0  0  0  0  0
    4.3654    0.6229   23.3620 H   0  0  0  0  0  0  0  0  0  0  0  0
    5.0047   -1.8932   22.3312 H   0  0  0  0  0  0  0  0  0  0  0  0
    4.4428   -0.1177   21.5095 H   0  0  0  0  0  0  0  0  0  0  0  0
    5.8154    0.6140   20.3195 H   0  0  0  0  0  0  0  0  0  0  0  0
    7.6541    2.3845   19.0000 H   0  0  0  0  0  0  0  0  0  0  0  0
    9.5118    2.5901   17.2436 H   0  0  0  0  0  0  0  0  0  0  0  0
   10.6006    1.8302   14.8501 H   0  0  0  0  0  0  0  0  0  0  0  0
    8.3803   -1.2527   16.0774 H   0  0  0  0  0  0  0  0  0  0  0  0
    3.3951   -1.5400   28.4900 H   0  0  0  0  0  0  0  0  0  0  0  0
    1.8667    2.3562   26.3235 H   0  0  0  0  0  0  0  0  0  0  0  0
    3.4626    2.8046   26.9660 H   0  0  0  0  0  0  0  0  0  0  0  0
  1  2  2  0
  2  3  1  0
  3  4  1  0
  4  5  1  0
  5  6  1  0
  6  7  2  0
  7  8  1  0
  8  9  2  0
  9 10  1  0
 10 11  2  0
 11 12  1  0
 12 13  2  0
 13 14  1  0
  9 15  1  0
  3 16  2  0
 16 17  1  0
 17 18  2  0
 17 19  1  0
 19 20  1  0
 20 21  1  0
 18  1  1  0
 15  6  1  0
 21 16  1  0
 14 10  1  0
  1 22  1  0
  2 23  1  0
  4 24  1  0
  5 25  1  0
  5 26  1  0
  7 27  1  0
  8 28  1  0
 11 29  1  0
 12 30  1  0
 14 31  1  0
 18 32  1  0
 20 33  1  0
 20 34  1  0
M  END
>  <Energy>  (1053) 
396.35127542174564

>  <compound_id>  (1053) 
17642

>  <target_id>  (1053) 
1

>  <reference_id>  (1053) 
13

>  <inspiration_ids>  (1053) 
[13, 122]

>  <energy_score>  (1053) 
320.28584280359695

>  <distance_score>  (1053) 
5.35682447721668

>  <path>  (1053) 
/opt/xchem-fragalysis-2/maxwin/BulkDock/SCRATCH/511014/C17642-P13/C17642-P13.minimised.mol

>  <scratch_subdir>  (1053) 
/opt/xchem-fragalysis-2/maxwin/BulkDock/SCRATCH/511014/C17642-P13

>  <fragmenstein_runtime>  (1053) 
6.853809595108032

>  <fragmenstein_outcome>  (1053) 
too moved

>  <fragmenstein_mode>  (1053) 
expansion

>  <fragmenstein_error>  (1053) 


$$$$
C17642-P122
     RDKit          3D

 34 37  0  0  0  0  0  0  0  0999 V2000
    5.7765   -0.7127   26.7836 C   0  0  0  0  0  0  0  0  0  0  0  0
    5.9091   -1.5561   25.6199 C   0  0  0  0  0  0  0  0  0  0  0  0
    4.9138   -1.7648   24.6323 C   0  0  0  0  0  0  0  0  0  0  0  0
    5.0102   -1.8595   23.1220 N   0  0  0  0  0  0  0  0  0  0  0  0
    5.8414   -1.7639   21.4662 C   0  0  0  0  0  0  0  0  0  0  0  0
    7.0274   -0.5987   20.3526 C   0  0  0  0  0  0  0  0  0  0  0  0
    7.4002    0.7700   20.3118 C   0  0  0  0  0  0  0  0  0  0  0  0
    7.4259    1.2409   18.9818 C   0  0  0  0  0  0  0  0  0  0  0  0
    7.7300    0.1251   18.1962 C   0  0  0  0  0  0  0  0  0  0  0  0
    8.4373    0.2106   16.9072 C   0  0  0  0  0  0  0  0  0  0  0  0
    9.2453    1.2370   16.4349 C   0  0  0  0  0  0  0  0  0  0  0  0
    9.9786    0.6717   15.3824 C   0  0  0  0  0  0  0  0  0  0  0  0
    9.6047   -0.5832   15.1596 N   0  0  0  0  0  0  0  0  0  0  0  0
    8.5296   -0.7411   15.9319 N   0  0  0  0  0  0  0  0  0  0  0  0
    7.6487   -0.9112   19.1708 O   0  0  0  0  0  0  0  0  0  0  0  0
    3.7043   -1.5428   25.3248 C   0  0  0  0  0  0  0  0  0  0  0  0
    3.5348   -0.5854   26.3708 C   0  0  0  0  0  0  0  0  0  0  0  0
    4.5993   -0.0603   27.0530 C   0  0  0  0  0  0  0  0  0  0  0  0
    2.3899   -0.7817   27.1217 O   0  0  0  0  0  0  0  0  0  0  0  0
    2.4191   -2.2058   27.0606 C   0  0  0  0  0  0  0  0  0  0  0  0
    3.0798   -2.6950   25.8778 O   0  0  0  0  0  0  0  0  0  0  0  0
    6.6472   -0.5663   27.4176 H   0  0  0  0  0  0  0  0  0  0  0  0
    6.9188   -1.9413   25.5487 H   0  0  0  0  0  0  0  0  0  0  0  0
    4.1912   -1.2463   22.9479 H   0  0  0  0  0  0  0  0  0  0  0  0
    5.2760   -2.4963   20.8571 H   0  0  0  0  0  0  0  0  0  0  0  0
    6.2646   -2.7815   21.2648 H   0  0  0  0  0  0  0  0  0  0  0  0
    7.4204    1.5129   21.1023 H   0  0  0  0  0  0  0  0  0  0  0  0
    7.4822    2.2547   18.5947 H   0  0  0  0  0  0  0  0  0  0  0  0
    9.3903    2.2144   16.8720 H   0  0  0  0  0  0  0  0  0  0  0  0
   10.7809    1.1005   14.7959 H   0  0  0  0  0  0  0  0  0  0  0  0
    7.9757   -1.5760   15.7886 H   0  0  0  0  0  0  0  0  0  0  0  0
    4.4767    0.5515   27.9364 H   0  0  0  0  0  0  0  0  0  0  0  0
    2.9588   -2.5915   27.9374 H   0  0  0  0  0  0  0  0  0  0  0  0
    1.4004   -2.5904   27.1409 H   0  0  0  0  0  0  0  0  0  0  0  0
  1  2  2  0
  2  3  1  0
  3  4  1  0
  4  5  1  0
  5  6  1  0
  6  7  2  0
  7  8  1  0
  8  9  2  0
  9 10  1  0
 10 11  2  0
 11 12  1  0
 12 13  2  0
 13 14  1  0
  9 15  1  0
  3 16  2  0
 16 17  1  0
 17 18  2  0
 17 19  1  0
 19 20  1  0
 20 21  1  0
 18  1  1  0
 15  6  1  0
 21 16  1  0
 14 10  1  0
  1 22  1  0
  2 23  1  0
  4 24  1  0
  5 25  1  0
  5 26  1  0
  7 27  1  0
  8 28  1  0
 11 29  1  0
 12 30  1  0
 14 31  1  0
 18 32  1  0
 20 33  1  0
 20 34  1  0
M  END
>  <Energy>  (1054) 
370.80668815484864

>  <compound_id>  (1054) 
17642

>  <target_id>  (1054) 
1

>  <reference_id>  (1054) 
122

>  <inspiration_ids>  (1054) 
[13, 122]

>  <energy_score>  (1054) 
294.7412555367085

>  <distance_score>  (1054) 
5.729493793391545

>  <path>  (1054) 
/opt/xchem-fragalysis-2/maxwin/BulkDock/SCRATCH/511014/C17642-P122/C17642-P122.minimised.mol

>  <scratch_subdir>  (1054) 
/opt/xchem-fragalysis-2/maxwin/BulkDock/SCRATCH/511014/C17642-P122

>  <fragmenstein_runtime>  (1054) 
6.543570280075073

>  <fragmenstein_outcome>  (1054) 
too moved

>  <fragmenstein_mode>  (1054) 
expansion

>  <fragmenstein_error>  (1054) 


$$$$
C17644-P13
     RDKit          3D

 37 39  0  0  0  0  0  0  0  0999 V2000
    6.6409   -6.1631   21.4224 O   0  0  0  0  0  0  0  0  0  0  0  0
    7.1324   -5.1864   21.9082 C   0  0  0  0  0  0  0  0  0  0  0  0
    6.5192   -4.7629   23.5389 N   0  0  0  0  0  0  0  0  0  0  0  0
    5.5674   -5.4615   24.4912 C   0  0  0  0  0  0  0  0  0  0  0  0
    5.0855   -4.7586   25.8518 C   0  0  0  0  0  0  0  0  0  0  0  0
    4.0663   -3.6727   25.8977 N   0  0  0  0  0  0  0  0  0  0  0  0
    3.7020   -3.3365   27.3114 C   0  0  0  0  0  0  0  0  0  0  0  0
    3.0920   -1.9572   27.5206 C   0  0  0  0  0  0  0  0  0  0  0  0
    3.8096   -0.7689   27.2714 C   0  0  0  0  0  0  0  0  0  0  0  0
    5.4569   -0.8040   26.7379 Cl  0  0  0  0  0  0  0  0  0  0  0  0
    3.2274    0.5079   27.4457 C   0  0  0  0  0  0  0  0  0  0  0  0
    1.9120    0.6416   27.8845 C   0  0  0  0  0  0  0  0  0  0  0  0
    1.2185   -0.5157   28.1457 C   0  0  0  0  0  0  0  0  0  0  0  0
    1.7865   -1.7700   27.9864 C   0  0  0  0  0  0  0  0  0  0  0  0
    0.8910   -2.7489   28.3104 O   0  0  0  0  0  0  0  0  0  0  0  0
   -0.3068   -1.9763   28.5636 C   0  0  0  0  0  0  0  0  0  0  0  0
   -0.0728   -0.5581   28.5717 O   0  0  0  0  0  0  0  0  0  0  0  0
    8.6760   -4.4960   20.6905 C   0  0  0  0  0  0  0  0  0  0  0  0
   10.4643   -4.4405   21.4132 C   0  0  0  0  0  0  0  0  0  0  0  0
   11.4474   -5.4144   21.5772 C   0  0  0  0  0  0  0  0  0  0  0  0
   10.6371   -6.3591   21.2613 N   0  0  0  0  0  0  0  0  0  0  0  0
    9.9462   -5.5793   20.2177 N   0  0  0  0  0  0  0  0  0  0  0  0
    6.9104   -3.9382   23.7875 H   0  0  0  0  0  0  0  0  0  0  0  0
    4.8824   -6.1900   24.0626 H   0  0  0  0  0  0  0  0  0  0  0  0
    6.2804   -6.1969   24.9032 H   0  0  0  0  0  0  0  0  0  0  0  0
    4.7059   -5.5798   26.4744 H   0  0  0  0  0  0  0  0  0  0  0  0
    5.9926   -4.3849   26.3448 H   0  0  0  0  0  0  0  0  0  0  0  0
    4.5233   -2.8491   25.4947 H   0  0  0  0  0  0  0  0  0  0  0  0
    3.0074   -4.1068   27.6661 H   0  0  0  0  0  0  0  0  0  0  0  0
    4.5870   -3.3969   27.9583 H   0  0  0  0  0  0  0  0  0  0  0  0
    3.8084    1.4023   27.2302 H   0  0  0  0  0  0  0  0  0  0  0  0
    1.4512    1.6142   28.0115 H   0  0  0  0  0  0  0  0  0  0  0  0
   -0.6991   -2.2685   29.5441 H   0  0  0  0  0  0  0  0  0  0  0  0
   -1.0620   -2.2105   27.8081 H   0  0  0  0  0  0  0  0  0  0  0  0
   10.7934   -3.4526   21.7832 H   0  0  0  0  0  0  0  0  0  0  0  0
   12.4251   -5.4792   22.0297 H   0  0  0  0  0  0  0  0  0  0  0  0
   10.4611   -5.2419   19.4060 H   0  0  0  0  0  0  0  0  0  0  0  0
  1  2  2  0
  2  3  1  0
  3  4  1  0
  4  5  1  0
  5  6  1  0
  6  7  1  0
  7  8  1  0
  8  9  2  0
  9 10  1  0
  9 11  1  0
 11 12  2  0
 12 13  1  0
 13 14  2  0
 14 15  1  0
 15 16  1  0
 16 17  1  0
  2 18  1  0
 18 19  2  0
 19 20  1  0
 20 21  2  0
 21 22  1  0
 14  8  1  0
 22 18  1  0
 17 13  1  0
  3 23  1  0
  4 24  1  0
  4 25  1  0
  5 26  1  0
  5 27  1  0
  6 28  1  0
  7 29  1  0
  7 30  1  0
 11 31  1  0
 12 32  1  0
 16 33  1  0
 16 34  1  0
 19 35  1  0
 20 36  1  0
 22 37  1  0
M  END
>  <Energy>  (1055) 
447.01488300884023

>  <compound_id>  (1055) 
17644

>  <target_id>  (1055) 
1

>  <reference_id>  (1055) 
13

>  <inspiration_ids>  (1055) 
[13, 122]

>  <energy_score>  (1055) 
416.8565274274804

>  <distance_score>  (1055) 
6.667954879213055

>  <path>  (1055) 
/opt/xchem-fragalysis-2/maxwin/BulkDock/SCRATCH/511014/C17644-P13/C17644-P13.minimised.mol

>  <scratch_subdir>  (1055) 
/opt/xchem-fragalysis-2/maxwin/BulkDock/SCRATCH/511014/C17644-P13

>  <fragmenstein_runtime>  (1055) 
6.238705396652222

>  <fragmenstein_outcome>  (1055) 
too moved

>  <fragmenstein_mode>  (1055) 
expansion

>  <fragmenstein_error>  (1055) 


$$$$
C17644-P122
     RDKit          3D

 37 39  0  0  0  0  0  0  0  0999 V2000
    8.5817    0.7144   27.6186 O   0  0  0  0  0  0  0  0  0  0  0  0
    8.2415   -0.2122   26.9771 C   0  0  0  0  0  0  0  0  0  0  0  0
    6.9240   -1.1002   27.0714 N   0  0  0  0  0  0  0  0  0  0  0  0
    5.6768   -0.9412   27.9562 C   0  0  0  0  0  0  0  0  0  0  0  0
    4.2136   -1.6371   27.6897 C   0  0  0  0  0  0  0  0  0  0  0  0
    3.0382   -1.1629   28.5111 N   0  0  0  0  0  0  0  0  0  0  0  0
    1.7648   -1.3650   27.7761 C   0  0  0  0  0  0  0  0  0  0  0  0
    0.5629   -0.7366   28.4449 C   0  0  0  0  0  0  0  0  0  0  0  0
    0.0427   -1.2733   29.6286 C   0  0  0  0  0  0  0  0  0  0  0  0
    0.7255   -2.6655   30.4026 Cl  0  0  0  0  0  0  0  0  0  0  0  0
   -1.0949   -0.7174   30.2391 C   0  0  0  0  0  0  0  0  0  0  0  0
   -1.7826    0.3432   29.6637 C   0  0  0  0  0  0  0  0  0  0  0  0
   -1.2972    0.8458   28.4930 C   0  0  0  0  0  0  0  0  0  0  0  0
   -0.1377    0.3627   27.9242 C   0  0  0  0  0  0  0  0  0  0  0  0
    0.1967    1.1460   26.8557 O   0  0  0  0  0  0  0  0  0  0  0  0
   -0.8812    2.1099   26.8171 C   0  0  0  0  0  0  0  0  0  0  0  0
   -1.8751    1.8664   27.8117 O   0  0  0  0  0  0  0  0  0  0  0  0
    9.3046   -0.5475   25.9075 C   0  0  0  0  0  0  0  0  0  0  0  0
   10.0101    0.3705   25.0837 C   0  0  0  0  0  0  0  0  0  0  0  0
   11.1501   -0.2728   24.5492 C   0  0  0  0  0  0  0  0  0  0  0  0
   11.2003   -1.5398   24.9649 N   0  0  0  0  0  0  0  0  0  0  0  0
   10.0566   -1.6984   25.7104 N   0  0  0  0  0  0  0  0  0  0  0  0
    6.9874   -1.8765   26.4152 H   0  0  0  0  0  0  0  0  0  0  0  0
    6.0042   -1.2419   28.9582 H   0  0  0  0  0  0  0  0  0  0  0  0
    5.5168    0.1429   27.9970 H   0  0  0  0  0  0  0  0  0  0  0  0
    4.0129   -1.4712   26.6240 H   0  0  0  0  0  0  0  0  0  0  0  0
    4.3271   -2.7118   27.8431 H   0  0  0  0  0  0  0  0  0  0  0  0
    3.1468   -0.1557   28.6336 H   0  0  0  0  0  0  0  0  0  0  0  0
    1.5854   -2.4353   27.6222 H   0  0  0  0  0  0  0  0  0  0  0  0
    1.8784   -0.9163   26.7895 H   0  0  0  0  0  0  0  0  0  0  0  0
   -1.4701   -1.1463   31.1661 H   0  0  0  0  0  0  0  0  0  0  0  0
   -2.6715    0.7513   30.1239 H   0  0  0  0  0  0  0  0  0  0  0  0
   -1.3518    2.0783   25.8288 H   0  0  0  0  0  0  0  0  0  0  0  0
   -0.4582    3.1098   26.9692 H   0  0  0  0  0  0  0  0  0  0  0  0
    9.7618    1.4197   24.9975 H   0  0  0  0  0  0  0  0  0  0  0  0
   11.9377    0.1185   23.9187 H   0  0  0  0  0  0  0  0  0  0  0  0
    9.8863   -2.6183   26.1036 H   0  0  0  0  0  0  0  0  0  0  0  0
  1  2  2  0
  2  3  1  0
  3  4  1  0
  4  5  1  0
  5  6  1  0
  6  7  1  0
  7  8  1  0
  8  9  2  0
  9 10  1  0
  9 11  1  0
 11 12  2  0
 12 13  1  0
 13 14  2  0
 14 15  1  0
 15 16  1  0
 16 17  1  0
  2 18  1  0
 18 19  2  0
 19 20  1  0
 20 21  2  0
 21 22  1  0
 14  8  1  0
 22 18  1  0
 17 13  1  0
  3 23  1  0
  4 24  1  0
  4 25  1  0
  5 26  1  0
  5 27  1  0
  6 28  1  0
  7 29  1  0
  7 30  1  0
 11 31  1  0
 12 32  1  0
 16 33  1  0
 16 34  1  0
 19 35  1  0
 20 36  1  0
 22 37  1  0
M  END
>  <Energy>  (1056) 
55.152286455296561

>  <compound_id>  (1056) 
17644

>  <target_id>  (1056) 
1

>  <reference_id>  (1056) 
122

>  <inspiration_ids>  (1056) 
[13, 122]

>  <energy_score>  (1056) 
33.07387096674046

>  <distance_score>  (1056) 
6.5720708446530764

>  <path>  (1056) 
/opt/xchem-fragalysis-2/maxwin/BulkDock/SCRATCH/511014/C17644-P122/C17644-P122.minimised.mol

>  <scratch_subdir>  (1056) 
/opt/xchem-fragalysis-2/maxwin/BulkDock/SCRATCH/511014/C17644-P122

>  <fragmenstein_runtime>  (1056) 
13.002281427383423

>  <fragmenstein_outcome>  (1056) 
too moved

>  <fragmenstein_mode>  (1056) 
expansion

>  <fragmenstein_error>  (1056) 


$$$$
C17647-P13
     RDKit          3D

 43 45  0  0  0  0  0  0  0  0999 V2000
    4.2820   -1.7469   27.1140 C   0  0  0  0  0  0  0  0  0  0  0  0
    3.6310   -0.3942   27.0225 C   0  0  0  0  0  0  0  0  0  0  0  0
    2.6533   -0.0791   27.9952 C   0  0  0  0  0  0  0  0  0  0  0  0
    1.9894    1.1243   27.9040 C   0  0  0  0  0  0  0  0  0  0  0  0
    2.3169    2.0432   26.9418 C   0  0  0  0  0  0  0  0  0  0  0  0
    3.2832    1.7872   25.9838 C   0  0  0  0  0  0  0  0  0  0  0  0
    3.8878    0.5167   25.9589 C   0  0  0  0  0  0  0  0  0  0  0  0
    4.4204    0.0477   24.7371 N   0  0  0  0  0  0  0  0  0  0  0  0
    4.6131    0.7373   23.4302 C   0  0  0  0  0  0  0  0  0  0  0  0
    4.4391    1.8854   23.1187 O   0  0  0  0  0  0  0  0  0  0  0  0
    5.1093   -0.6715   22.1591 C   0  0  0  0  0  0  0  0  0  0  0  0
    4.9009   -1.8572   22.4447 O   0  0  0  0  0  0  0  0  0  0  0  0
    6.0642    0.1589   20.6330 N   0  0  0  0  0  0  0  0  0  0  0  0
    6.9673   -0.4720   19.3886 C   0  0  0  0  0  0  0  0  0  0  0  0
    7.5012    0.3455   17.9472 C   0  0  0  0  0  0  0  0  0  0  0  0
    8.6839    0.0938   17.0630 N   0  0  0  0  0  0  0  0  0  0  0  0
    9.4723    0.9938   16.2664 C   0  0  0  0  0  0  0  0  0  0  0  0
    9.4358    2.1815   16.1693 O   0  0  0  0  0  0  0  0  0  0  0  0
   10.4885    0.2707   15.4926 C   0  0  0  0  0  0  0  0  0  0  0  0
   11.7123    0.7404   15.0350 C   0  0  0  0  0  0  0  0  0  0  0  0
   12.4084   -0.3926   14.5812 C   0  0  0  0  0  0  0  0  0  0  0  0
   11.6577   -1.4912   14.6483 N   0  0  0  0  0  0  0  0  0  0  0  0
   10.4507   -1.0093   14.9962 N   0  0  0  0  0  0  0  0  0  0  0  0
    1.5168    3.1447   26.9880 O   0  0  0  0  0  0  0  0  0  0  0  0
    0.6142    2.7866   28.0557 C   0  0  0  0  0  0  0  0  0  0  0  0
    0.9508    1.5293   28.6835 O   0  0  0  0  0  0  0  0  0  0  0  0
    5.2724   -1.7389   26.6473 H   0  0  0  0  0  0  0  0  0  0  0  0
    3.6693   -2.5134   26.6348 H   0  0  0  0  0  0  0  0  0  0  0  0
    4.4340   -2.0293   28.1617 H   0  0  0  0  0  0  0  0  0  0  0  0
    2.3867   -0.7850   28.7753 H   0  0  0  0  0  0  0  0  0  0  0  0
    3.4322    2.5102   25.1888 H   0  0  0  0  0  0  0  0  0  0  0  0
    4.5852   -0.9449   24.6166 H   0  0  0  0  0  0  0  0  0  0  0  0
    6.1169    1.1146   20.7587 H   0  0  0  0  0  0  0  0  0  0  0  0
    7.6187    0.3673   19.7127 H   0  0  0  0  0  0  0  0  0  0  0  0
    7.8293   -0.9368   19.6951 H   0  0  0  0  0  0  0  0  0  0  0  0
    6.7995   -0.0908   17.2334 H   0  0  0  0  0  0  0  0  0  0  0  0
    7.5475    1.4254   18.1395 H   0  0  0  0  0  0  0  0  0  0  0  0
    8.9321   -0.8491   16.8316 H   0  0  0  0  0  0  0  0  0  0  0  0
   12.0768    1.7541   15.1225 H   0  0  0  0  0  0  0  0  0  0  0  0
   13.4266   -0.4655   14.2219 H   0  0  0  0  0  0  0  0  0  0  0  0
    9.6457   -1.6069   14.8410 H   0  0  0  0  0  0  0  0  0  0  0  0
    0.6401    3.5749   28.8164 H   0  0  0  0  0  0  0  0  0  0  0  0
   -0.4027    2.7180   27.6517 H   0  0  0  0  0  0  0  0  0  0  0  0
  1  2  1  0
  2  3  2  0
  3  4  1  0
  4  5  2  0
  5  6  1  0
  6  7  2  0
  7  8  1  0
  8  9  1  0
  9 10  2  0
  9 11  1  0
 11 12  2  0
 11 13  1  0
 13 14  1  0
 14 15  1  0
 15 16  1  0
 16 17  1  0
 17 18  2  0
 17 19  1  0
 19 20  2  0
 20 21  1  0
 21 22  2  0
 22 23  1  0
  5 24  1  0
 24 25  1  0
 25 26  1  0
  7  2  1  0
 23 19  1  0
 26  4  1  0
  1 27  1  0
  1 28  1  0
  1 29  1  0
  3 30  1  0
  6 31  1  0
  8 32  1  0
 13 33  1  0
 14 34  1  0
 14 35  1  0
 15 36  1  0
 15 37  1  0
 16 38  1  0
 20 39  1  0
 21 40  1  0
 23 41  1  0
 25 42  1  0
 25 43  1  0
M  END
>  <Energy>  (1057) 
292.9003276529649

>  <compound_id>  (1057) 
17647

>  <target_id>  (1057) 
1

>  <reference_id>  (1057) 
13

>  <inspiration_ids>  (1057) 
[13, 122]

>  <energy_score>  (1057) 
218.4952895363101

>  <distance_score>  (1057) 
3.7475346738824804

>  <path>  (1057) 
/opt/xchem-fragalysis-2/maxwin/BulkDock/SCRATCH/511014/C17647-P13/C17647-P13.minimised.mol

>  <scratch_subdir>  (1057) 
/opt/xchem-fragalysis-2/maxwin/BulkDock/SCRATCH/511014/C17647-P13

>  <fragmenstein_runtime>  (1057) 
12.13711929321289

>  <fragmenstein_outcome>  (1057) 
too moved

>  <fragmenstein_mode>  (1057) 
expansion

>  <fragmenstein_error>  (1057) 


$$$$
C17647-P122
     RDKit          3D

 43 45  0  0  0  0  0  0  0  0999 V2000
    2.8354    1.2888   26.9008 C   0  0  0  0  0  0  0  0  0  0  0  0
    1.7569    2.1097   26.2303 C   0  0  0  0  0  0  0  0  0  0  0  0
    0.6491    2.4718   27.0197 C   0  0  0  0  0  0  0  0  0  0  0  0
   -0.3828    3.1486   26.4179 C   0  0  0  0  0  0  0  0  0  0  0  0
   -0.3230    3.5270   25.0993 C   0  0  0  0  0  0  0  0  0  0  0  0
    0.7535    3.2178   24.2855 C   0  0  0  0  0  0  0  0  0  0  0  0
    1.7746    2.4291   24.8257 C   0  0  0  0  0  0  0  0  0  0  0  0
    2.7317    1.7661   24.0032 N   0  0  0  0  0  0  0  0  0  0  0  0
    2.9644    1.8220   22.4819 C   0  0  0  0  0  0  0  0  0  0  0  0
    2.3316    2.3843   21.6181 O   0  0  0  0  0  0  0  0  0  0  0  0
    4.7053    0.8755   21.9965 C   0  0  0  0  0  0  0  0  0  0  0  0
    4.9158   -0.2897   21.8902 O   0  0  0  0  0  0  0  0  0  0  0  0
    5.9920    2.2190   21.5852 N   0  0  0  0  0  0  0  0  0  0  0  0
    7.2881    2.1065   21.0247 C   0  0  0  0  0  0  0  0  0  0  0  0
    7.3213    1.2129   19.5565 C   0  0  0  0  0  0  0  0  0  0  0  0
    7.9941    1.6435   18.1981 N   0  0  0  0  0  0  0  0  0  0  0  0
    8.0815    2.9267   17.5473 C   0  0  0  0  0  0  0  0  0  0  0  0
    7.5965    3.9831   17.8342 O   0  0  0  0  0  0  0  0  0  0  0  0
    9.0159    2.7757   16.4300 C   0  0  0  0  0  0  0  0  0  0  0  0
   10.0737    3.5832   16.0555 C   0  0  0  0  0  0  0  0  0  0  0  0
   10.8026    2.8323   15.1136 C   0  0  0  0  0  0  0  0  0  0  0  0
   10.2280    1.6577   14.8517 N   0  0  0  0  0  0  0  0  0  0  0  0
    9.1219    1.6828   15.6078 N   0  0  0  0  0  0  0  0  0  0  0  0
   -1.4624    4.1569   24.7020 O   0  0  0  0  0  0  0  0  0  0  0  0
   -2.2220    4.1734   25.9323 C   0  0  0  0  0  0  0  0  0  0  0  0
   -1.5557    3.4873   27.0130 O   0  0  0  0  0  0  0  0  0  0  0  0
    3.8100    1.7645   26.7570 H   0  0  0  0  0  0  0  0  0  0  0  0
    2.8671    0.2690   26.5086 H   0  0  0  0  0  0  0  0  0  0  0  0
    2.6737    1.2212   27.9823 H   0  0  0  0  0  0  0  0  0  0  0  0
    0.5781    2.1974   28.0669 H   0  0  0  0  0  0  0  0  0  0  0  0
    0.7348    3.4953   23.2361 H   0  0  0  0  0  0  0  0  0  0  0  0
    3.4044    1.1336   24.4188 H   0  0  0  0  0  0  0  0  0  0  0  0
    5.5363    3.2141   21.6752 H   0  0  0  0  0  0  0  0  0  0  0  0
    7.1785    3.2105   20.9938 H   0  0  0  0  0  0  0  0  0  0  0  0
    8.1006    1.8227   21.7079 H   0  0  0  0  0  0  0  0  0  0  0  0
    6.5479    0.5198   19.2600 H   0  0  0  0  0  0  0  0  0  0  0  0
    7.6634    0.2495   20.0039 H   0  0  0  0  0  0  0  0  0  0  0  0
    8.4594    0.9583   17.6342 H   0  0  0  0  0  0  0  0  0  0  0  0
   10.3323    4.5401   16.4882 H   0  0  0  0  0  0  0  0  0  0  0  0
   11.7302    3.0907   14.6187 H   0  0  0  0  0  0  0  0  0  0  0  0
    8.4624    0.9175   15.5231 H   0  0  0  0  0  0  0  0  0  0  0  0
   -2.3875    5.2151   26.2279 H   0  0  0  0  0  0  0  0  0  0  0  0
   -3.1909    3.6934   25.7538 H   0  0  0  0  0  0  0  0  0  0  0  0
  1  2  1  0
  2  3  2  0
  3  4  1  0
  4  5  2  0
  5  6  1  0
  6  7  2  0
  7  8  1  0
  8  9  1  0
  9 10  2  0
  9 11  1  0
 11 12  2  0
 11 13  1  0
 13 14  1  0
 14 15  1  0
 15 16  1  0
 16 17  1  0
 17 18  2  0
 17 19  1  0
 19 20  2  0
 20 21  1  0
 21 22  2  0
 22 23  1  0
  5 24  1  0
 24 25  1  0
 25 26  1  0
  7  2  1  0
 23 19  1  0
 26  4  1  0
  1 27  1  0
  1 28  1  0
  1 29  1  0
  3 30  1  0
  6 31  1  0
  8 32  1  0
 13 33  1  0
 14 34  1  0
 14 35  1  0
 15 36  1  0
 15 37  1  0
 16 38  1  0
 20 39  1  0
 21 40  1  0
 23 41  1  0
 25 42  1  0
 25 43  1  0
M  END
>  <Energy>  (1058) 
238.52569022904603

>  <compound_id>  (1058) 
17647

>  <target_id>  (1058) 
1

>  <reference_id>  (1058) 
122

>  <inspiration_ids>  (1058) 
[13, 122]

>  <energy_score>  (1058) 
164.1206521124036

>  <distance_score>  (1058) 
4.729429336634707

>  <path>  (1058) 
/opt/xchem-fragalysis-2/maxwin/BulkDock/SCRATCH/511014/C17647-P122/C17647-P122.minimised.mol

>  <scratch_subdir>  (1058) 
/opt/xchem-fragalysis-2/maxwin/BulkDock/SCRATCH/511014/C17647-P122

>  <fragmenstein_runtime>  (1058) 
10.924362421035767

>  <fragmenstein_outcome>  (1058) 
too moved

>  <fragmenstein_mode>  (1058) 
expansion

>  <fragmenstein_error>  (1058) 


$$$$
C17648-P13
     RDKit          3D

 44 47  0  0  0  0  0  0  0  0999 V2000
    4.7799    1.8194   26.5413 O   0  0  0  0  0  0  0  0  0  0  0  0
    3.9683    1.0585   26.1637 C   0  0  0  0  0  0  0  0  0  0  0  0
    2.7762    0.5491   26.8203 N   0  0  0  0  0  0  0  0  0  0  0  0
    2.2043    0.8566   28.0998 C   0  0  0  0  0  0  0  0  0  0  0  0
    0.8921    1.5679   27.9238 C   0  0  0  0  0  0  0  0  0  0  0  0
    0.8338    2.9650   28.1181 C   0  0  0  0  0  0  0  0  0  0  0  0
   -0.3303    3.6790   27.8368 C   0  0  0  0  0  0  0  0  0  0  0  0
   -1.4024    2.9792   27.3342 C   0  0  0  0  0  0  0  0  0  0  0  0
   -1.3660    1.6182   27.1560 C   0  0  0  0  0  0  0  0  0  0  0  0
   -0.2469    0.8781   27.4696 C   0  0  0  0  0  0  0  0  0  0  0  0
   -2.5105    1.1403   26.5993 O   0  0  0  0  0  0  0  0  0  0  0  0
   -3.2464    2.3677   26.4013 C   0  0  0  0  0  0  0  0  0  0  0  0
   -2.5768    3.5251   26.9313 O   0  0  0  0  0  0  0  0  0  0  0  0
    3.9120    0.2615   24.9176 N   0  0  0  0  0  0  0  0  0  0  0  0
    4.5392   -1.0302   25.1260 C   0  0  0  0  0  0  0  0  0  0  0  0
    4.1701   -2.0176   24.0801 C   0  0  0  0  0  0  0  0  0  0  0  0
    5.0015   -2.0241   22.8585 C   0  0  0  0  0  0  0  0  0  0  0  0
    5.0616   -0.6608   21.7867 C   0  0  0  0  0  0  0  0  0  0  0  0
    6.5706   -0.2054   20.3591 C   0  0  0  0  0  0  0  0  0  0  0  0
    6.8617   -0.1485   18.7793 C   0  0  0  0  0  0  0  0  0  0  0  0
    8.0093    0.4863   18.2438 C   0  0  0  0  0  0  0  0  0  0  0  0
    8.5238    0.9925   19.3113 N   0  0  0  0  0  0  0  0  0  0  0  0
    7.3611    1.1927   19.8963 N   0  0  0  0  0  0  0  0  0  0  0  0
    4.9038    0.2696   23.5959 C   0  0  0  0  0  0  0  0  0  0  0  0
    2.2652   -0.0253   26.1742 H   0  0  0  0  0  0  0  0  0  0  0  0
    2.9161    1.4589   28.6740 H   0  0  0  0  0  0  0  0  0  0  0  0
    2.0506   -0.0859   28.6358 H   0  0  0  0  0  0  0  0  0  0  0  0
    1.7146    3.5076   28.4576 H   0  0  0  0  0  0  0  0  0  0  0  0
   -0.3834    4.7534   27.9742 H   0  0  0  0  0  0  0  0  0  0  0  0
   -0.2389   -0.1943   27.3033 H   0  0  0  0  0  0  0  0  0  0  0  0
   -4.2333    2.2686   26.8615 H   0  0  0  0  0  0  0  0  0  0  0  0
   -3.3838    2.5215   25.3264 H   0  0  0  0  0  0  0  0  0  0  0  0
    5.5781   -1.0301   25.4971 H   0  0  0  0  0  0  0  0  0  0  0  0
    4.0659   -1.4092   26.0479 H   0  0  0  0  0  0  0  0  0  0  0  0
    3.2315   -1.9651   23.5538 H   0  0  0  0  0  0  0  0  0  0  0  0
    4.1991   -2.9424   24.6852 H   0  0  0  0  0  0  0  0  0  0  0  0
    5.1194   -2.7699   22.0714 H   0  0  0  0  0  0  0  0  0  0  0  0
    5.8415   -2.5011   23.3948 H   0  0  0  0  0  0  0  0  0  0  0  0
    4.3387    0.0872   21.4651 H   0  0  0  0  0  0  0  0  0  0  0  0
    6.1904   -0.5780   18.0299 H   0  0  0  0  0  0  0  0  0  0  0  0
    8.4113    0.5776   17.2432 H   0  0  0  0  0  0  0  0  0  0  0  0
    7.2008    2.1182   20.2495 H   0  0  0  0  0  0  0  0  0  0  0  0
    4.6751    1.3175   23.2912 H   0  0  0  0  0  0  0  0  0  0  0  0
    5.7718    0.2559   24.2201 H   0  0  0  0  0  0  0  0  0  0  0  0
  1  2  2  0
  2  3  1  0
  3  4  1  0
  4  5  1  0
  5  6  2  0
  6  7  1  0
  7  8  2  0
  8  9  1  0
  9 10  2  0
  9 11  1  0
 11 12  1  0
 12 13  1  0
  2 14  1  0
 14 15  1  0
 15 16  1  0
 16 17  1  0
 17 18  1  0
 18 19  1  0
 19 20  2  0
 20 21  1  0
 21 22  2  0
 22 23  1  0
 18 24  1  0
 10  5  1  0
 24 14  1  0
 13  8  1  0
 23 19  1  0
  3 25  1  0
  4 26  1  0
  4 27  1  0
  6 28  1  0
  7 29  1  0
 10 30  1  0
 12 31  1  0
 12 32  1  0
 15 33  1  0
 15 34  1  0
 16 35  1  0
 16 36  1  0
 17 37  1  0
 17 38  1  0
 18 39  1  0
 20 40  1  0
 21 41  1  0
 23 42  1  0
 24 43  1  0
 24 44  1  0
M  END
>  <Energy>  (1059) 
435.21296809592997

>  <compound_id>  (1059) 
17648

>  <target_id>  (1059) 
1

>  <reference_id>  (1059) 
13

>  <inspiration_ids>  (1059) 
[13, 122]

>  <energy_score>  (1059) 
422.14487150091713

>  <distance_score>  (1059) 
5.9166908112831305

>  <path>  (1059) 
/opt/xchem-fragalysis-2/maxwin/BulkDock/SCRATCH/511014/C17648-P13/C17648-P13.minimised.mol

>  <scratch_subdir>  (1059) 
/opt/xchem-fragalysis-2/maxwin/BulkDock/SCRATCH/511014/C17648-P13

>  <fragmenstein_runtime>  (1059) 
13.860762119293213

>  <fragmenstein_outcome>  (1059) 
too moved

>  <fragmenstein_mode>  (1059) 
expansion

>  <fragmenstein_error>  (1059) 


$$$$
C17648-P122
     RDKit          3D

 44 47  0  0  0  0  0  0  0  0999 V2000
    1.5739   -3.8981   27.9741 O   0  0  0  0  0  0  0  0  0  0  0  0
    1.5755   -2.7553   27.7105 C   0  0  0  0  0  0  0  0  0  0  0  0
    0.6399   -1.7223   28.0385 N   0  0  0  0  0  0  0  0  0  0  0  0
   -0.6182   -1.7803   28.7001 C   0  0  0  0  0  0  0  0  0  0  0  0
   -0.7200   -0.7309   29.7731 C   0  0  0  0  0  0  0  0  0  0  0  0
    0.1388    0.3985   29.8321 C   0  0  0  0  0  0  0  0  0  0  0  0
    0.0407    1.3311   30.8616 C   0  0  0  0  0  0  0  0  0  0  0  0
   -0.9350    1.1191   31.8024 C   0  0  0  0  0  0  0  0  0  0  0  0
   -1.8106    0.0629   31.7245 C   0  0  0  0  0  0  0  0  0  0  0  0
   -1.7234   -0.8823   30.7350 C   0  0  0  0  0  0  0  0  0  0  0  0
   -2.7264    0.0712   32.7271 O   0  0  0  0  0  0  0  0  0  0  0  0
   -2.2061    1.1386   33.5406 C   0  0  0  0  0  0  0  0  0  0  0  0
   -1.1580    1.8901   32.8979 O   0  0  0  0  0  0  0  0  0  0  0  0
    2.4748   -1.9856   26.8749 N   0  0  0  0  0  0  0  0  0  0  0  0
    3.6045   -1.4365   27.7068 C   0  0  0  0  0  0  0  0  0  0  0  0
    4.5089   -0.3786   27.1225 C   0  0  0  0  0  0  0  0  0  0  0  0
    4.1751   -0.1383   25.6686 C   0  0  0  0  0  0  0  0  0  0  0  0
    3.9356   -1.4311   24.8487 C   0  0  0  0  0  0  0  0  0  0  0  0
    4.6173   -1.5744   23.3253 C   0  0  0  0  0  0  0  0  0  0  0  0
    5.4139   -2.1516   22.4226 C   0  0  0  0  0  0  0  0  0  0  0  0
    5.9412   -1.2824   21.5066 C   0  0  0  0  0  0  0  0  0  0  0  0
    5.5874   -0.0493   21.5116 N   0  0  0  0  0  0  0  0  0  0  0  0
    4.6422   -0.2283   22.2364 N   0  0  0  0  0  0  0  0  0  0  0  0
    3.6648   -2.4475   25.9580 C   0  0  0  0  0  0  0  0  0  0  0  0
    0.9152   -0.8707   27.5753 H   0  0  0  0  0  0  0  0  0  0  0  0
   -0.7404   -2.7839   29.1215 H   0  0  0  0  0  0  0  0  0  0  0  0
   -1.3999   -1.6102   27.9539 H   0  0  0  0  0  0  0  0  0  0  0  0
    0.9168    0.5539   29.0899 H   0  0  0  0  0  0  0  0  0  0  0  0
    0.7146    2.1772   30.9255 H   0  0  0  0  0  0  0  0  0  0  0  0
   -2.3990   -1.7295   30.7224 H   0  0  0  0  0  0  0  0  0  0  0  0
   -1.8168    0.7158   34.4750 H   0  0  0  0  0  0  0  0  0  0  0  0
   -3.0265    1.8219   33.7863 H   0  0  0  0  0  0  0  0  0  0  0  0
    4.1298   -2.2163   28.2888 H   0  0  0  0  0  0  0  0  0  0  0  0
    3.0860   -0.9182   28.5302 H   0  0  0  0  0  0  0  0  0  0  0  0
    4.4336    0.5582   27.6880 H   0  0  0  0  0  0  0  0  0  0  0  0
    5.5527   -0.7057   27.2184 H   0  0  0  0  0  0  0  0  0  0  0  0
    3.2934    0.5087   25.6137 H   0  0  0  0  0  0  0  0  0  0  0  0
    5.0028    0.4511   25.3722 H   0  0  0  0  0  0  0  0  0  0  0  0
    2.9068   -1.3432   24.5410 H   0  0  0  0  0  0  0  0  0  0  0  0
    5.8793   -3.0420   22.1523 H   0  0  0  0  0  0  0  0  0  0  0  0
    6.7418   -1.4607   20.7794 H   0  0  0  0  0  0  0  0  0  0  0  0
    4.1457    0.5951   22.5644 H   0  0  0  0  0  0  0  0  0  0  0  0
    3.2736   -3.2974   25.4152 H   0  0  0  0  0  0  0  0  0  0  0  0
    4.4783   -2.8166   26.5426 H   0  0  0  0  0  0  0  0  0  0  0  0
  1  2  2  0
  2  3  1  0
  3  4  1  0
  4  5  1  0
  5  6  2  0
  6  7  1  0
  7  8  2  0
  8  9  1  0
  9 10  2  0
  9 11  1  0
 11 12  1  0
 12 13  1  0
  2 14  1  0
 14 15  1  0
 15 16  1  0
 16 17  1  0
 17 18  1  0
 18 19  1  0
 19 20  2  0
 20 21  1  0
 21 22  2  0
 22 23  1  0
 18 24  1  0
 10  5  1  0
 24 14  1  0
 13  8  1  0
 23 19  1  0
  3 25  1  0
  4 26  1  0
  4 27  1  0
  6 28  1  0
  7 29  1  0
 10 30  1  0
 12 31  1  0
 12 32  1  0
 15 33  1  0
 15 34  1  0
 16 35  1  0
 16 36  1  0
 17 37  1  0
 17 38  1  0
 18 39  1  0
 20 40  1  0
 21 41  1  0
 23 42  1  0
 24 43  1  0
 24 44  1  0
M  END
>  <Energy>  (1060) 
168.63848561696551

>  <compound_id>  (1060) 
17648

>  <target_id>  (1060) 
1

>  <reference_id>  (1060) 
122

>  <inspiration_ids>  (1060) 
[13, 122]

>  <energy_score>  (1060) 
155.57038902197007

>  <distance_score>  (1060) 
6.866204494502792

>  <path>  (1060) 
/opt/xchem-fragalysis-2/maxwin/BulkDock/SCRATCH/511014/C17648-P122/C17648-P122.minimised.mol

>  <scratch_subdir>  (1060) 
/opt/xchem-fragalysis-2/maxwin/BulkDock/SCRATCH/511014/C17648-P122

>  <fragmenstein_runtime>  (1060) 
15.15911340713501

>  <fragmenstein_outcome>  (1060) 
too moved

>  <fragmenstein_mode>  (1060) 
expansion

>  <fragmenstein_error>  (1060) 


$$$$
C17650-P13
     RDKit          3D

 48 51  0  0  0  0  0  0  0  0999 V2000
    4.0474    1.6747   28.3972 O   0  0  0  0  0  0  0  0  0  0  0  0
    3.8649    0.5109   27.5589 C   0  0  0  0  0  0  0  0  0  0  0  0
    2.7112   -0.3070   28.2027 C   0  0  0  0  0  0  0  0  0  0  0  0
    1.4598   -0.3621   27.5451 O   0  0  0  0  0  0  0  0  0  0  0  0
    0.5514    0.6397   27.7179 C   0  0  0  0  0  0  0  0  0  0  0  0
    0.8245    1.9375   28.1704 C   0  0  0  0  0  0  0  0  0  0  0  0
   -0.1371    2.9495   28.0488 C   0  0  0  0  0  0  0  0  0  0  0  0
   -1.3377    2.6290   27.4564 C   0  0  0  0  0  0  0  0  0  0  0  0
   -1.6282    1.3451   27.0798 C   0  0  0  0  0  0  0  0  0  0  0  0
   -0.7285    0.3241   27.2564 C   0  0  0  0  0  0  0  0  0  0  0  0
   -2.8286    1.2383   26.4566 O   0  0  0  0  0  0  0  0  0  0  0  0
   -3.2345    2.6202   26.4276 C   0  0  0  0  0  0  0  0  0  0  0  0
   -2.3353    3.4939   27.1424 O   0  0  0  0  0  0  0  0  0  0  0  0
    3.8955    0.9590   26.0317 C   0  0  0  0  0  0  0  0  0  0  0  0
    3.9789   -0.0326   24.9354 N   0  0  0  0  0  0  0  0  0  0  0  0
    4.4916   -1.2810   25.3771 C   0  0  0  0  0  0  0  0  0  0  0  0
    4.2215   -2.1329   24.1904 C   0  0  0  0  0  0  0  0  0  0  0  0
    5.0134   -2.0237   22.9195 C   0  0  0  0  0  0  0  0  0  0  0  0
    5.0574   -0.6568   21.8168 C   0  0  0  0  0  0  0  0  0  0  0  0
    6.5595   -0.2092   20.3754 C   0  0  0  0  0  0  0  0  0  0  0  0
    6.8629   -0.1520   18.7914 C   0  0  0  0  0  0  0  0  0  0  0  0
    8.0135    0.4818   18.2607 C   0  0  0  0  0  0  0  0  0  0  0  0
    8.5208    0.9910   19.3304 N   0  0  0  0  0  0  0  0  0  0  0  0
    7.3513    1.1916   19.9015 N   0  0  0  0  0  0  0  0  0  0  0  0
    4.8737    0.3075   23.6141 C   0  0  0  0  0  0  0  0  0  0  0  0
    4.8303    2.1496   28.0673 H   0  0  0  0  0  0  0  0  0  0  0  0
    4.7835   -0.0614   27.7426 H   0  0  0  0  0  0  0  0  0  0  0  0
    2.5676   -0.0252   29.2549 H   0  0  0  0  0  0  0  0  0  0  0  0
    3.0439   -1.3513   28.2422 H   0  0  0  0  0  0  0  0  0  0  0  0
    1.7908    2.2095   28.5745 H   0  0  0  0  0  0  0  0  0  0  0  0
    0.0721    3.9672   28.3603 H   0  0  0  0  0  0  0  0  0  0  0  0
   -0.9806   -0.6827   26.9493 H   0  0  0  0  0  0  0  0  0  0  0  0
   -4.2369    2.6843   26.8534 H   0  0  0  0  0  0  0  0  0  0  0  0
   -3.2826    2.9510   25.3833 H   0  0  0  0  0  0  0  0  0  0  0  0
    3.0303    1.6051   25.8463 H   0  0  0  0  0  0  0  0  0  0  0  0
    4.7605    1.6290   25.9354 H   0  0  0  0  0  0  0  0  0  0  0  0
    3.9362   -1.6829   26.2287 H   0  0  0  0  0  0  0  0  0  0  0  0
    5.5459   -1.2797   25.6789 H   0  0  0  0  0  0  0  0  0  0  0  0
    4.2818   -3.1031   24.7207 H   0  0  0  0  0  0  0  0  0  0  0  0
    3.2887   -2.0966   23.6426 H   0  0  0  0  0  0  0  0  0  0  0  0
    5.8741   -2.5067   23.4088 H   0  0  0  0  0  0  0  0  0  0  0  0
    5.1179   -2.7549   22.1166 H   0  0  0  0  0  0  0  0  0  0  0  0
    4.3310    0.0733   21.4747 H   0  0  0  0  0  0  0  0  0  0  0  0
    6.1945   -0.5794   18.0377 H   0  0  0  0  0  0  0  0  0  0  0  0
    8.4201    0.5714   17.2618 H   0  0  0  0  0  0  0  0  0  0  0  0
    7.1919    2.1157   20.2567 H   0  0  0  0  0  0  0  0  0  0  0  0
    4.5960    1.3563   23.3765 H   0  0  0  0  0  0  0  0  0  0  0  0
    5.7273    0.2345   24.2557 H   0  0  0  0  0  0  0  0  0  0  0  0
  1  2  1  0
  2  3  1  0
  3  4  1  0
  4  5  1  0
  5  6  2  0
  6  7  1  0
  7  8  2  0
  8  9  1  0
  9 10  2  0
  9 11  1  0
 11 12  1  0
 12 13  1  0
  2 14  1  0
 14 15  1  0
 15 16  1  0
 16 17  1  0
 17 18  1  0
 18 19  1  0
 19 20  1  0
 20 21  2  0
 21 22  1  0
 22 23  2  0
 23 24  1  0
 19 25  1  0
 10  5  1  0
 25 15  1  0
 13  8  1  0
 24 20  1  0
  1 26  1  0
  2 27  1  0
  3 28  1  0
  3 29  1  0
  6 30  1  0
  7 31  1  0
 10 32  1  0
 12 33  1  0
 12 34  1  0
 14 35  1  0
 14 36  1  0
 16 37  1  0
 16 38  1  0
 17 39  1  0
 17 40  1  0
 18 41  1  0
 18 42  1  0
 19 43  1  0
 21 44  1  0
 22 45  1  0
 24 46  1  0
 25 47  1  0
 25 48  1  0
M  END
>  <Energy>  (1061) 
522.49325695730317

>  <compound_id>  (1061) 
17650

>  <target_id>  (1061) 
1

>  <reference_id>  (1061) 
13

>  <inspiration_ids>  (1061) 
[13, 122]

>  <energy_score>  (1061) 
385.2844778123708

>  <distance_score>  (1061) 
5.529699699912879

>  <path>  (1061) 
/opt/xchem-fragalysis-2/maxwin/BulkDock/SCRATCH/511014/C17650-P13/C17650-P13.minimised.mol

>  <scratch_subdir>  (1061) 
/opt/xchem-fragalysis-2/maxwin/BulkDock/SCRATCH/511014/C17650-P13

>  <fragmenstein_runtime>  (1061) 
10.109859704971313

>  <fragmenstein_outcome>  (1061) 
too moved

>  <fragmenstein_mode>  (1061) 
expansion

>  <fragmenstein_error>  (1061) 


$$$$
C17650-P122
     RDKit          3D

 48 51  0  0  0  0  0  0  0  0999 V2000
    2.7635   -2.5247   26.7974 O   0  0  0  0  0  0  0  0  0  0  0  0
    3.7978   -1.7255   26.1465 C   0  0  0  0  0  0  0  0  0  0  0  0
    4.6376   -1.1706   27.2848 C   0  0  0  0  0  0  0  0  0  0  0  0
    3.8205   -0.6442   28.3863 O   0  0  0  0  0  0  0  0  0  0  0  0
    2.7983    0.2023   28.0317 C   0  0  0  0  0  0  0  0  0  0  0  0
    3.0460    1.4241   27.3894 C   0  0  0  0  0  0  0  0  0  0  0  0
    1.9810    2.2559   27.0198 C   0  0  0  0  0  0  0  0  0  0  0  0
    0.6985    1.8378   27.3139 C   0  0  0  0  0  0  0  0  0  0  0  0
    0.4554    0.6556   27.9726 C   0  0  0  0  0  0  0  0  0  0  0  0
    1.4876   -0.1764   28.3602 C   0  0  0  0  0  0  0  0  0  0  0  0
   -0.8762    0.4293   28.1483 O   0  0  0  0  0  0  0  0  0  0  0  0
   -1.4402    1.6041   27.5279 C   0  0  0  0  0  0  0  0  0  0  0  0
   -0.4461    2.4935   26.9809 O   0  0  0  0  0  0  0  0  0  0  0  0
    4.3758   -2.6026   24.9822 C   0  0  0  0  0  0  0  0  0  0  0  0
    5.6620   -2.3448   23.9773 N   0  0  0  0  0  0  0  0  0  0  0  0
    4.9230   -2.0024   22.7323 C   0  0  0  0  0  0  0  0  0  0  0  0
    4.9960   -3.1464   21.0438 C   0  0  0  0  0  0  0  0  0  0  0  0
    6.2191   -2.8159   20.9902 C   0  0  0  0  0  0  0  0  0  0  0  0
    7.5834   -3.2033   21.3444 C   0  0  0  0  0  0  0  0  0  0  0  0
    7.4876   -1.2674   20.4992 C   0  0  0  0  0  0  0  0  0  0  0  0
    6.8566   -0.0636   20.2898 C   0  0  0  0  0  0  0  0  0  0  0  0
    7.2296    0.7409   19.2628 C   0  0  0  0  0  0  0  0  0  0  0  0
    7.7137   -0.1017   18.3867 N   0  0  0  0  0  0  0  0  0  0  0  0
    8.0732   -0.9401   19.3156 N   0  0  0  0  0  0  0  0  0  0  0  0
    6.9288   -3.6172   23.2670 C   0  0  0  0  0  0  0  0  0  0  0  0
    2.0289   -2.5047   26.1533 H   0  0  0  0  0  0  0  0  0  0  0  0
    3.2875   -0.8807   25.6728 H   0  0  0  0  0  0  0  0  0  0  0  0
    5.3295   -0.3942   26.9422 H   0  0  0  0  0  0  0  0  0  0  0  0
    5.2336   -1.9715   27.7338 H   0  0  0  0  0  0  0  0  0  0  0  0
    4.0669    1.7245   27.1737 H   0  0  0  0  0  0  0  0  0  0  0  0
    2.1569    3.1948   26.5070 H   0  0  0  0  0  0  0  0  0  0  0  0
    1.2967   -1.1193   28.8593 H   0  0  0  0  0  0  0  0  0  0  0  0
   -2.0305    2.1475   28.2727 H   0  0  0  0  0  0  0  0  0  0  0  0
   -2.1070    1.2844   26.7185 H   0  0  0  0  0  0  0  0  0  0  0  0
    4.2312   -3.6537   25.1560 H   0  0  0  0  0  0  0  0  0  0  0  0
    3.4477   -2.6436   24.4086 H   0  0  0  0  0  0  0  0  0  0  0  0
    3.9014   -1.9826   23.0662 H   0  0  0  0  0  0  0  0  0  0  0  0
    4.9960   -1.0060   22.3036 H   0  0  0  0  0  0  0  0  0  0  0  0
    5.0887   -2.9395   19.9933 H   0  0  0  0  0  0  0  0  0  0  0  0
    4.2842   -3.9365   20.9602 H   0  0  0  0  0  0  0  0  0  0  0  0
    5.9836   -1.8290   21.2276 H   0  0  0  0  0  0  0  0  0  0  0  0
    6.0077   -3.1500   21.8925 H   0  0  0  0  0  0  0  0  0  0  0  0
    8.0255   -4.0299   20.8193 H   0  0  0  0  0  0  0  0  0  0  0  0
    6.0117    0.0487   21.0001 H   0  0  0  0  0  0  0  0  0  0  0  0
    7.1718    1.7948   19.0337 H   0  0  0  0  0  0  0  0  0  0  0  0
    8.9034   -1.3943   19.1296 H   0  0  0  0  0  0  0  0  0  0  0  0
    7.5822   -3.5858   24.1056 H   0  0  0  0  0  0  0  0  0  0  0  0
    6.7670   -4.6944   23.3729 H   0  0  0  0  0  0  0  0  0  0  0  0
  1  2  1  0
  2  3  1  0
  3  4  1  0
  4  5  1  0
  5  6  2  0
  6  7  1  0
  7  8  2  0
  8  9  1  0
  9 10  2  0
  9 11  1  0
 11 12  1  0
 12 13  1  0
  2 14  1  0
 14 15  1  0
 15 16  1  0
 16 17  1  0
 17 18  1  0
 18 19  1  0
 19 20  1  0
 20 21  2  0
 21 22  1  0
 22 23  2  0
 23 24  1  0
 19 25  1  0
 10  5  1  0
 25 15  1  0
 13  8  1  0
 24 20  1  0
  1 26  1  0
  2 27  1  0
  3 28  1  0
  3 29  1  0
  6 30  1  0
  7 31  1  0
 10 32  1  0
 12 33  1  0
 12 34  1  0
 14 35  1  0
 14 36  1  0
 16 37  1  0
 16 38  1  0
 17 39  1  0
 17 40  1  0
 18 41  1  0
 18 42  1  0
 19 43  1  0
 21 44  1  0
 22 45  1  0
 24 46  1  0
 25 47  1  0
 25 48  1  0
M  END
>  <Energy>  (1062) 
824.96705953275045

>  <compound_id>  (1062) 
17650

>  <target_id>  (1062) 
1

>  <reference_id>  (1062) 
122

>  <inspiration_ids>  (1062) 
[13, 122]

>  <energy_score>  (1062) 
687.7582803878274

>  <distance_score>  (1062) 
5.767414760027171

>  <path>  (1062) 
/opt/xchem-fragalysis-2/maxwin/BulkDock/SCRATCH/511014/C17650-P122/C17650-P122.minimised.mol

>  <scratch_subdir>  (1062) 
/opt/xchem-fragalysis-2/maxwin/BulkDock/SCRATCH/511014/C17650-P122

>  <fragmenstein_runtime>  (1062) 
12.577565908432007

>  <fragmenstein_outcome>  (1062) 
too moved

>  <fragmenstein_mode>  (1062) 
expansion

>  <fragmenstein_error>  (1062) 


$$$$
C17653-P13
     RDKit          3D

 35 37  0  0  0  0  0  0  0  0999 V2000
    5.0920    1.5240   26.5697 C   0  0  0  0  0  0  0  0  0  0  0  0
    3.8496    2.2919   26.2068 C   0  0  0  0  0  0  0  0  0  0  0  0
    2.8953    2.3308   27.2727 C   0  0  0  0  0  0  0  0  0  0  0  0
    1.7286    3.0423   27.1379 C   0  0  0  0  0  0  0  0  0  0  0  0
    1.5014    3.7870   26.0224 C   0  0  0  0  0  0  0  0  0  0  0  0
    2.3920    3.7942   24.9620 C   0  0  0  0  0  0  0  0  0  0  0  0
    3.5757    2.9406   24.9590 C   0  0  0  0  0  0  0  0  0  0  0  0
    3.9124    2.3454   23.5174 N   0  0  0  0  0  0  0  0  0  0  0  0
    4.3806    1.4988   23.0078 C   0  0  0  0  0  0  0  0  0  0  0  0
    4.7566    0.5076   24.2420 O   0  0  0  0  0  0  0  0  0  0  0  0
    4.6711    0.8692   21.2147 C   0  0  0  0  0  0  0  0  0  0  0  0
    6.3904    0.4713   20.1059 C   0  0  0  0  0  0  0  0  0  0  0  0
    7.6120    1.4073   19.3480 C   0  0  0  0  0  0  0  0  0  0  0  0
    8.0673    2.7155   19.2931 C   0  0  0  0  0  0  0  0  0  0  0  0
    8.9351    2.7819   18.1801 C   0  0  0  0  0  0  0  0  0  0  0  0
    9.0438    1.6120   17.5514 N   0  0  0  0  0  0  0  0  0  0  0  0
    8.0888    0.8995   18.1434 N   0  0  0  0  0  0  0  0  0  0  0  0
    0.2891    4.4045   26.0478 O   0  0  0  0  0  0  0  0  0  0  0  0
   -0.2251    3.9508   27.3214 C   0  0  0  0  0  0  0  0  0  0  0  0
    0.7012    3.0936   28.0248 O   0  0  0  0  0  0  0  0  0  0  0  0
    4.9248    0.4437   26.5447 H   0  0  0  0  0  0  0  0  0  0  0  0
    5.9390    1.8121   25.9466 H   0  0  0  0  0  0  0  0  0  0  0  0
    5.4004    1.7807   27.5915 H   0  0  0  0  0  0  0  0  0  0  0  0
    3.0753    1.7782   28.1918 H   0  0  0  0  0  0  0  0  0  0  0  0
    2.0615    4.3195   24.0640 H   0  0  0  0  0  0  0  0  0  0  0  0
    3.5219    3.2565   23.5693 H   0  0  0  0  0  0  0  0  0  0  0  0
    4.5683   -0.1953   21.5648 H   0  0  0  0  0  0  0  0  0  0  0  0
    3.6424    1.1511   21.0356 H   0  0  0  0  0  0  0  0  0  0  0  0
    6.0848    0.4630   19.0459 H   0  0  0  0  0  0  0  0  0  0  0  0
    6.8436   -0.5268   20.2717 H   0  0  0  0  0  0  0  0  0  0  0  0
    7.7674    3.5688   19.8797 H   0  0  0  0  0  0  0  0  0  0  0  0
    9.4779    3.6402   17.8066 H   0  0  0  0  0  0  0  0  0  0  0  0
    7.5966    0.2290   17.5697 H   0  0  0  0  0  0  0  0  0  0  0  0
   -0.4396    4.8256   27.9456 H   0  0  0  0  0  0  0  0  0  0  0  0
   -1.1564    3.3988   27.1494 H   0  0  0  0  0  0  0  0  0  0  0  0
  1  2  1  0
  2  3  2  0
  3  4  1  0
  4  5  2  0
  5  6  1  0
  6  7  2  0
  7  8  1  0
  8  9  1  0
  9 10  2  0
  9 11  1  0
 11 12  1  0
 12 13  1  0
 13 14  2  0
 14 15  1  0
 15 16  2  0
 16 17  1  0
  5 18  1  0
 18 19  1  0
 19 20  1  0
  7  2  1  0
 17 13  1  0
 20  4  1  0
  1 21  1  0
  1 22  1  0
  1 23  1  0
  3 24  1  0
  6 25  1  0
  8 26  1  0
 11 27  1  0
 11 28  1  0
 12 29  1  0
 12 30  1  0
 14 31  1  0
 15 32  1  0
 17 33  1  0
 19 34  1  0
 19 35  1  0
M  END
>  <Energy>  (1063) 
471.9219614817294

>  <compound_id>  (1063) 
17653

>  <target_id>  (1063) 
1

>  <reference_id>  (1063) 
13

>  <inspiration_ids>  (1063) 
[13, 122]

>  <energy_score>  (1063) 
422.5638330602507

>  <distance_score>  (1063) 
5.8879791545595666

>  <path>  (1063) 
/opt/xchem-fragalysis-2/maxwin/BulkDock/SCRATCH/511014/C17653-P13/C17653-P13.minimised.mol

>  <scratch_subdir>  (1063) 
/opt/xchem-fragalysis-2/maxwin/BulkDock/SCRATCH/511014/C17653-P13

>  <fragmenstein_runtime>  (1063) 
6.2337646484375

>  <fragmenstein_outcome>  (1063) 
too moved

>  <fragmenstein_mode>  (1063) 
expansion

>  <fragmenstein_error>  (1063) 


$$$$
C17653-P122
     RDKit          3D

 35 37  0  0  0  0  0  0  0  0999 V2000
    5.7001   -1.6218   26.4534 C   0  0  0  0  0  0  0  0  0  0  0  0
    4.3831   -2.2984   25.6182 C   0  0  0  0  0  0  0  0  0  0  0  0
    3.3935   -2.4029   26.7209 C   0  0  0  0  0  0  0  0  0  0  0  0
    2.7235   -1.2776   27.0498 C   0  0  0  0  0  0  0  0  0  0  0  0
    3.0016   -0.2365   26.2626 C   0  0  0  0  0  0  0  0  0  0  0  0
    3.6903   -0.4473   25.0303 C   0  0  0  0  0  0  0  0  0  0  0  0
    4.1914   -1.6719   24.3962 C   0  0  0  0  0  0  0  0  0  0  0  0
    5.1818   -1.6586   22.9233 N   0  0  0  0  0  0  0  0  0  0  0  0
    5.4666   -0.3888   21.7349 C   0  0  0  0  0  0  0  0  0  0  0  0
    4.8904    0.6377   21.7724 O   0  0  0  0  0  0  0  0  0  0  0  0
    6.8834   -0.3205   20.2789 C   0  0  0  0  0  0  0  0  0  0  0  0
    7.1546   -0.2614   18.7071 C   0  0  0  0  0  0  0  0  0  0  0  0
    8.1510    0.3941   17.4695 C   0  0  0  0  0  0  0  0  0  0  0  0
    8.6264    1.6607   17.1333 C   0  0  0  0  0  0  0  0  0  0  0  0
    9.5816    1.4458   16.1232 C   0  0  0  0  0  0  0  0  0  0  0  0
    9.5855    0.1720   15.7360 N   0  0  0  0  0  0  0  0  0  0  0  0
    8.4616   -0.2950   16.2979 N   0  0  0  0  0  0  0  0  0  0  0  0
    2.5160    0.9380   26.7562 O   0  0  0  0  0  0  0  0  0  0  0  0
    1.7771    0.4417   27.8948 C   0  0  0  0  0  0  0  0  0  0  0  0
    1.9949   -0.9658   28.1380 O   0  0  0  0  0  0  0  0  0  0  0  0
    5.5579   -0.5569   26.6606 H   0  0  0  0  0  0  0  0  0  0  0  0
    5.8167   -2.1218   27.4249 H   0  0  0  0  0  0  0  0  0  0  0  0
    6.6168   -1.7454   25.8753 H   0  0  0  0  0  0  0  0  0  0  0  0
    3.5407   -3.0950   27.5368 H   0  0  0  0  0  0  0  0  0  0  0  0
    3.8261    0.4940   24.5641 H   0  0  0  0  0  0  0  0  0  0  0  0
    5.6960   -2.4506   22.6664 H   0  0  0  0  0  0  0  0  0  0  0  0
    7.4213   -1.1638   20.6133 H   0  0  0  0  0  0  0  0  0  0  0  0
    7.4200    0.6364   20.4575 H   0  0  0  0  0  0  0  0  0  0  0  0
    8.0282   -0.8594   18.9318 H   0  0  0  0  0  0  0  0  0  0  0  0
    6.3558   -0.7673   18.1564 H   0  0  0  0  0  0  0  0  0  0  0  0
    8.3754    2.5972   17.6038 H   0  0  0  0  0  0  0  0  0  0  0  0
   10.2654    2.1495   15.6669 H   0  0  0  0  0  0  0  0  0  0  0  0
    8.0430   -1.1281   15.8952 H   0  0  0  0  0  0  0  0  0  0  0  0
    2.0889    1.0018   28.7835 H   0  0  0  0  0  0  0  0  0  0  0  0
    0.7068    0.6123   27.7261 H   0  0  0  0  0  0  0  0  0  0  0  0
  1  2  1  0
  2  3  2  0
  3  4  1  0
  4  5  2  0
  5  6  1  0
  6  7  2  0
  7  8  1  0
  8  9  1  0
  9 10  2  0
  9 11  1  0
 11 12  1  0
 12 13  1  0
 13 14  2  0
 14 15  1  0
 15 16  2  0
 16 17  1  0
  5 18  1  0
 18 19  1  0
 19 20  1  0
  7  2  1  0
 17 13  1  0
 20  4  1  0
  1 21  1  0
  1 22  1  0
  1 23  1  0
  3 24  1  0
  6 25  1  0
  8 26  1  0
 11 27  1  0
 11 28  1  0
 12 29  1  0
 12 30  1  0
 14 31  1  0
 15 32  1  0
 17 33  1  0
 19 34  1  0
 19 35  1  0
M  END
>  <Energy>  (1064) 
379.54486426444822

>  <compound_id>  (1064) 
17653

>  <target_id>  (1064) 
1

>  <reference_id>  (1064) 
122

>  <inspiration_ids>  (1064) 
[13, 122]

>  <energy_score>  (1064) 
330.18673584298085

>  <distance_score>  (1064) 
5.48769280241

>  <path>  (1064) 
/opt/xchem-fragalysis-2/maxwin/BulkDock/SCRATCH/511014/C17653-P122/C17653-P122.minimised.mol

>  <scratch_subdir>  (1064) 
/opt/xchem-fragalysis-2/maxwin/BulkDock/SCRATCH/511014/C17653-P122

>  <fragmenstein_runtime>  (1064) 
5.55143404006958

>  <fragmenstein_outcome>  (1064) 
too moved

>  <fragmenstein_mode>  (1064) 
expansion

>  <fragmenstein_error>  (1064) 


$$$$
C17658-P13
     RDKit          3D

 41 43  0  0  0  0  0  0  0  0999 V2000
    2.1698    1.0113   28.7692 C   0  0  0  0  0  0  0  0  0  0  0  0
    1.1437    1.8201   28.0187 C   0  0  0  0  0  0  0  0  0  0  0  0
   -0.1942    1.6476   28.3896 C   0  0  0  0  0  0  0  0  0  0  0  0
   -1.1538    2.2180   27.5922 C   0  0  0  0  0  0  0  0  0  0  0  0
   -0.8392    3.0232   26.5239 C   0  0  0  0  0  0  0  0  0  0  0  0
    0.4579    3.2524   26.1356 C   0  0  0  0  0  0  0  0  0  0  0  0
    1.4464    2.5511   26.8236 C   0  0  0  0  0  0  0  0  0  0  0  0
    2.5348    2.0649   26.1069 N   0  0  0  0  0  0  0  0  0  0  0  0
    2.9334    2.2671   24.6755 C   0  0  0  0  0  0  0  0  0  0  0  0
    2.4638    2.9507   23.8456 O   0  0  0  0  0  0  0  0  0  0  0  0
    4.0041    1.2915   24.5973 N   0  0  0  0  0  0  0  0  0  0  0  0
    4.7554    0.7869   23.4579 C   0  0  0  0  0  0  0  0  0  0  0  0
    4.5434    0.8203   21.4721 C   0  0  0  0  0  0  0  0  0  0  0  0
    6.1540    0.4593   20.2969 N   0  0  0  0  0  0  0  0  0  0  0  0
    7.2933    1.5402   19.5831 C   0  0  0  0  0  0  0  0  0  0  0  0
    7.3982    2.7523   19.7275 O   0  0  0  0  0  0  0  0  0  0  0  0
    8.2278    1.0746   18.5713 C   0  0  0  0  0  0  0  0  0  0  0  0
    9.1594    1.8939   17.9081 C   0  0  0  0  0  0  0  0  0  0  0  0
    9.5654    1.2261   16.7375 C   0  0  0  0  0  0  0  0  0  0  0  0
    8.9105    0.0711   16.6417 N   0  0  0  0  0  0  0  0  0  0  0  0
    7.8852    0.3326   17.4777 N   0  0  0  0  0  0  0  0  0  0  0  0
   -1.9424    3.4168   25.8347 O   0  0  0  0  0  0  0  0  0  0  0  0
   -2.9777    2.8969   26.6908 C   0  0  0  0  0  0  0  0  0  0  0  0
   -2.4855    1.9914   27.6961 O   0  0  0  0  0  0  0  0  0  0  0  0
    2.3153    0.0400   28.2862 H   0  0  0  0  0  0  0  0  0  0  0  0
    1.8570    0.8444   29.8057 H   0  0  0  0  0  0  0  0  0  0  0  0
    3.1254    1.5444   28.8103 H   0  0  0  0  0  0  0  0  0  0  0  0
   -0.4838    1.0075   29.2152 H   0  0  0  0  0  0  0  0  0  0  0  0
    0.6522    3.7905   25.2148 H   0  0  0  0  0  0  0  0  0  0  0  0
    3.2011    1.4731   26.5559 H   0  0  0  0  0  0  0  0  0  0  0  0
    4.0935    0.8311   25.4767 H   0  0  0  0  0  0  0  0  0  0  0  0
    5.5656    0.3416   24.0216 H   0  0  0  0  0  0  0  0  0  0  0  0
    4.5941   -0.3337   23.5999 H   0  0  0  0  0  0  0  0  0  0  0  0
    3.5584    1.1985   21.2206 H   0  0  0  0  0  0  0  0  0  0  0  0
    4.4876   -0.2655   21.5880 H   0  0  0  0  0  0  0  0  0  0  0  0
    6.3265   -0.4864   19.9644 H   0  0  0  0  0  0  0  0  0  0  0  0
    9.4477    2.8816   18.2452 H   0  0  0  0  0  0  0  0  0  0  0  0
   10.2940    1.5122   15.9904 H   0  0  0  0  0  0  0  0  0  0  0  0
    6.9320    0.0937   17.2048 H   0  0  0  0  0  0  0  0  0  0  0  0
   -3.7311    2.3869   26.0819 H   0  0  0  0  0  0  0  0  0  0  0  0
   -3.4269    3.7423   27.2056 H   0  0  0  0  0  0  0  0  0  0  0  0
  1  2  1  0
  2  3  2  0
  3  4  1  0
  4  5  2  0
  5  6  1  0
  6  7  2  0
  7  8  1  0
  8  9  1  0
  9 10  2  0
  9 11  1  0
 11 12  1  0
 12 13  1  0
 13 14  1  0
 14 15  1  0
 15 16  2  0
 15 17  1  0
 17 18  2  0
 18 19  1  0
 19 20  2  0
 20 21  1  0
  5 22  1  0
 22 23  1  0
 23 24  1  0
  7  2  1  0
 21 17  1  0
 24  4  1  0
  1 25  1  0
  1 26  1  0
  1 27  1  0
  3 28  1  0
  6 29  1  0
  8 30  1  0
 11 31  1  0
 12 32  1  0
 12 33  1  0
 13 34  1  0
 13 35  1  0
 14 36  1  0
 18 37  1  0
 19 38  1  0
 21 39  1  0
 23 40  1  0
 23 41  1  0
M  END
>  <Energy>  (1065) 
223.2419864792154

>  <compound_id>  (1065) 
17658

>  <target_id>  (1065) 
1

>  <reference_id>  (1065) 
13

>  <inspiration_ids>  (1065) 
[13, 122]

>  <energy_score>  (1065) 
246.80182188156482

>  <distance_score>  (1065) 
4.270729512443963

>  <path>  (1065) 
/opt/xchem-fragalysis-2/maxwin/BulkDock/SCRATCH/511014/C17658-P13/C17658-P13.minimised.mol

>  <scratch_subdir>  (1065) 
/opt/xchem-fragalysis-2/maxwin/BulkDock/SCRATCH/511014/C17658-P13

>  <fragmenstein_runtime>  (1065) 
11.392040014266968

>  <fragmenstein_outcome>  (1065) 
too moved

>  <fragmenstein_mode>  (1065) 
expansion

>  <fragmenstein_error>  (1065) 


$$$$
C17658-P122
     RDKit          3D

 41 43  0  0  0  0  0  0  0  0999 V2000
    3.3462   -3.1865   28.9298 C   0  0  0  0  0  0  0  0  0  0  0  0
    2.3968   -2.9483   27.7203 C   0  0  0  0  0  0  0  0  0  0  0  0
    1.0636   -2.8732   28.2341 C   0  0  0  0  0  0  0  0  0  0  0  0
    0.4528   -1.6411   28.2396 C   0  0  0  0  0  0  0  0  0  0  0  0
    1.1176   -0.5488   27.7602 C   0  0  0  0  0  0  0  0  0  0  0  0
    2.3412   -0.6757   27.1192 C   0  0  0  0  0  0  0  0  0  0  0  0
    2.8711   -1.9654   26.8466 C   0  0  0  0  0  0  0  0  0  0  0  0
    3.5848   -2.0006   25.5889 N   0  0  0  0  0  0  0  0  0  0  0  0
    4.3365   -0.9549   24.8838 C   0  0  0  0  0  0  0  0  0  0  0  0
    4.5849    0.1232   25.2456 O   0  0  0  0  0  0  0  0  0  0  0  0
    4.7242   -1.5577   23.2524 N   0  0  0  0  0  0  0  0  0  0  0  0
    5.4561   -0.6409   21.7206 C   0  0  0  0  0  0  0  0  0  0  0  0
    6.8809   -0.1238   20.3081 C   0  0  0  0  0  0  0  0  0  0  0  0
    7.5996   -0.2170   18.9767 N   0  0  0  0  0  0  0  0  0  0  0  0
    8.0446    0.9700   17.9010 C   0  0  0  0  0  0  0  0  0  0  0  0
    7.8144    2.1714   17.9120 O   0  0  0  0  0  0  0  0  0  0  0  0
    8.8029    0.4543   16.7684 C   0  0  0  0  0  0  0  0  0  0  0  0
    9.9602    0.9292   16.1640 C   0  0  0  0  0  0  0  0  0  0  0  0
   10.4173   -0.1564   15.3916 C   0  0  0  0  0  0  0  0  0  0  0  0
    9.5556   -1.1749   15.4599 N   0  0  0  0  0  0  0  0  0  0  0  0
    8.4589   -0.5783   15.9428 N   0  0  0  0  0  0  0  0  0  0  0  0
    0.3919    0.5981   27.8820 O   0  0  0  0  0  0  0  0  0  0  0  0
   -0.8352    0.0770   28.4312 C   0  0  0  0  0  0  0  0  0  0  0  0
   -0.7618   -1.3266   28.7590 O   0  0  0  0  0  0  0  0  0  0  0  0
    4.3966   -3.1425   28.6239 H   0  0  0  0  0  0  0  0  0  0  0  0
    3.2075   -2.3919   29.6744 H   0  0  0  0  0  0  0  0  0  0  0  0
    3.1261   -4.1443   29.4120 H   0  0  0  0  0  0  0  0  0  0  0  0
    0.6372   -3.6849   28.8146 H   0  0  0  0  0  0  0  0  0  0  0  0
    2.7467    0.2150   26.6498 H   0  0  0  0  0  0  0  0  0  0  0  0
    3.6161   -2.8440   25.0456 H   0  0  0  0  0  0  0  0  0  0  0  0
    4.3500   -2.4570   23.1455 H   0  0  0  0  0  0  0  0  0  0  0  0
    4.5525   -0.0514   21.5957 H   0  0  0  0  0  0  0  0  0  0  0  0
    5.5646    0.3896   22.0505 H   0  0  0  0  0  0  0  0  0  0  0  0
    6.2403    0.2483   19.5496 H   0  0  0  0  0  0  0  0  0  0  0  0
    7.2292   -1.1212   20.4724 H   0  0  0  0  0  0  0  0  0  0  0  0
    8.0065   -1.0401   18.7322 H   0  0  0  0  0  0  0  0  0  0  0  0
   10.4767    1.8542   16.3859 H   0  0  0  0  0  0  0  0  0  0  0  0
   11.3383   -0.2725   14.8343 H   0  0  0  0  0  0  0  0  0  0  0  0
    7.5506   -1.0052   15.7877 H   0  0  0  0  0  0  0  0  0  0  0  0
   -1.6420    0.2284   27.7037 H   0  0  0  0  0  0  0  0  0  0  0  0
   -1.0754    0.6357   29.3428 H   0  0  0  0  0  0  0  0  0  0  0  0
  1  2  1  0
  2  3  2  0
  3  4  1  0
  4  5  2  0
  5  6  1  0
  6  7  2  0
  7  8  1  0
  8  9  1  0
  9 10  2  0
  9 11  1  0
 11 12  1  0
 12 13  1  0
 13 14  1  0
 14 15  1  0
 15 16  2  0
 15 17  1  0
 17 18  2  0
 18 19  1  0
 19 20  2  0
 20 21  1  0
  5 22  1  0
 22 23  1  0
 23 24  1  0
  7  2  1  0
 21 17  1  0
 24  4  1  0
  1 25  1  0
  1 26  1  0
  1 27  1  0
  3 28  1  0
  6 29  1  0
  8 30  1  0
 11 31  1  0
 12 32  1  0
 12 33  1  0
 13 34  1  0
 13 35  1  0
 14 36  1  0
 18 37  1  0
 19 38  1  0
 21 39  1  0
 23 40  1  0
 23 41  1  0
M  END
>  <Energy>  (1066) 
364.66236171859174

>  <compound_id>  (1066) 
17658

>  <target_id>  (1066) 
1

>  <reference_id>  (1066) 
122

>  <inspiration_ids>  (1066) 
[13, 122]

>  <energy_score>  (1066) 
388.2221971209465

>  <distance_score>  (1066) 
3.7539187076755174

>  <path>  (1066) 
/opt/xchem-fragalysis-2/maxwin/BulkDock/SCRATCH/511014/C17658-P122/C17658-P122.minimised.mol

>  <scratch_subdir>  (1066) 
/opt/xchem-fragalysis-2/maxwin/BulkDock/SCRATCH/511014/C17658-P122

>  <fragmenstein_runtime>  (1066) 
10.09877347946167

>  <fragmenstein_outcome>  (1066) 
too moved

>  <fragmenstein_mode>  (1066) 
expansion

>  <fragmenstein_error>  (1066) 


$$$$
C17660-P13
     RDKit          3D

 37 40  0  0  0  0  0  0  0  0999 V2000
    5.4107   -1.5941   20.9962 O   0  0  0  0  0  0  0  0  0  0  0  0
    5.8423   -2.9019   21.0558 S   0  0  0  0  0  0  0  0  0  0  0  0
    7.2743   -3.2136   21.2966 O   0  0  0  0  0  0  0  0  0  0  0  0
    5.8398   -3.1571   23.3797 C   0  0  0  0  0  0  0  0  0  0  0  0
    6.0023   -4.5475   24.0692 C   0  0  0  0  0  0  0  0  0  0  0  0
    5.6358   -4.8314   25.4205 C   0  0  0  0  0  0  0  0  0  0  0  0
    5.0807   -3.8435   26.2256 C   0  0  0  0  0  0  0  0  0  0  0  0
    4.8556   -2.5984   25.6702 C   0  0  0  0  0  0  0  0  0  0  0  0
    5.1295   -2.2602   24.3264 C   0  0  0  0  0  0  0  0  0  0  0  0
    4.5980   -1.0302   24.1163 O   0  0  0  0  0  0  0  0  0  0  0  0
    4.3738   -0.5187   25.4349 C   0  0  0  0  0  0  0  0  0  0  0  0
    4.2734   -1.5820   26.3880 O   0  0  0  0  0  0  0  0  0  0  0  0
    5.5456   -4.3962   19.4298 N   0  0  0  0  0  0  0  0  0  0  0  0
    4.5994   -4.9161   18.4474 C   0  0  0  0  0  0  0  0  0  0  0  0
    5.4723   -5.7255   17.1693 C   0  0  0  0  0  0  0  0  0  0  0  0
    7.0528   -5.3987   16.8433 C   0  0  0  0  0  0  0  0  0  0  0  0
    8.1189   -3.9314   15.7865 C   0  0  0  0  0  0  0  0  0  0  0  0
    9.4881   -3.5194   15.2069 C   0  0  0  0  0  0  0  0  0  0  0  0
    9.5116   -2.1077   15.0217 C   0  0  0  0  0  0  0  0  0  0  0  0
    8.3088   -1.5982   15.2117 N   0  0  0  0  0  0  0  0  0  0  0  0
    7.5213   -2.6809   15.1436 N   0  0  0  0  0  0  0  0  0  0  0  0
    6.6539   -5.2306   18.7663 C   0  0  0  0  0  0  0  0  0  0  0  0
    6.3494   -5.3934   23.4891 H   0  0  0  0  0  0  0  0  0  0  0  0
    5.7992   -5.8300   25.8149 H   0  0  0  0  0  0  0  0  0  0  0  0
    4.8262   -4.0419   27.2602 H   0  0  0  0  0  0  0  0  0  0  0  0
    3.4494    0.0658   25.4521 H   0  0  0  0  0  0  0  0  0  0  0  0
    5.2018    0.1442   25.7167 H   0  0  0  0  0  0  0  0  0  0  0  0
    4.0464   -4.1775   17.8828 H   0  0  0  0  0  0  0  0  0  0  0  0
    4.0987   -5.7376   18.9020 H   0  0  0  0  0  0  0  0  0  0  0  0
    4.8710   -5.9199   16.3002 H   0  0  0  0  0  0  0  0  0  0  0  0
    5.4947   -6.7781   17.5296 H   0  0  0  0  0  0  0  0  0  0  0  0
    6.8225   -5.9809   15.9567 H   0  0  0  0  0  0  0  0  0  0  0  0
   10.4267   -4.0655   15.1779 H   0  0  0  0  0  0  0  0  0  0  0  0
   10.3512   -1.4633   14.7960 H   0  0  0  0  0  0  0  0  0  0  0  0
    6.5492   -2.5488   14.8852 H   0  0  0  0  0  0  0  0  0  0  0  0
    7.1696   -4.6910   19.5473 H   0  0  0  0  0  0  0  0  0  0  0  0
    6.7427   -6.2846   19.0658 H   0  0  0  0  0  0  0  0  0  0  0  0
  1  2  2  0
  2  3  2  0
  2  4  1  0
  4  5  2  0
  5  6  1  0
  6  7  2  0
  7  8  1  0
  8  9  2  0
  9 10  1  0
 10 11  1  0
 11 12  1  0
  2 13  1  0
 13 14  1  0
 14 15  1  0
 15 16  1  0
 16 17  1  0
 17 18  2  0
 18 19  1  0
 19 20  2  0
 20 21  1  0
 16 22  1  0
  9  4  1  0
 22 13  1  0
 12  8  1  0
 21 17  1  0
  5 23  1  0
  6 24  1  0
  7 25  1  0
 11 26  1  0
 11 27  1  0
 14 28  1  0
 14 29  1  0
 15 30  1  0
 15 31  1  0
 16 32  1  0
 18 33  1  0
 19 34  1  0
 21 35  1  0
 22 36  1  0
 22 37  1  0
M  END
>  <Energy>  (1067) 
606.48651951854742

>  <compound_id>  (1067) 
17660

>  <target_id>  (1067) 
1

>  <reference_id>  (1067) 
13

>  <inspiration_ids>  (1067) 
[13, 122]

>  <energy_score>  (1067) 
565.9639806795504

>  <distance_score>  (1067) 
6.787071229905723

>  <path>  (1067) 
/opt/xchem-fragalysis-2/maxwin/BulkDock/SCRATCH/511014/C17660-P13/C17660-P13.minimised.mol

>  <scratch_subdir>  (1067) 
/opt/xchem-fragalysis-2/maxwin/BulkDock/SCRATCH/511014/C17660-P13

>  <fragmenstein_runtime>  (1067) 
5.582475185394287

>  <fragmenstein_outcome>  (1067) 
too moved

>  <fragmenstein_mode>  (1067) 
expansion

>  <fragmenstein_error>  (1067) 


$$$$
C17660-P122
     RDKit          3D

 37 40  0  0  0  0  0  0  0  0999 V2000
    3.5527    1.0065   21.6567 O   0  0  0  0  0  0  0  0  0  0  0  0
    4.6948    0.2701   22.1961 S   0  0  0  0  0  0  0  0  0  0  0  0
    5.0479   -1.1569   22.1097 O   0  0  0  0  0  0  0  0  0  0  0  0
    4.1575    0.0339   24.5498 C   0  0  0  0  0  0  0  0  0  0  0  0
    4.3645   -1.2693   25.0935 C   0  0  0  0  0  0  0  0  0  0  0  0
    3.9257   -1.5964   26.3997 C   0  0  0  0  0  0  0  0  0  0  0  0
    3.2239   -0.6959   27.1968 C   0  0  0  0  0  0  0  0  0  0  0  0
    2.9040    0.5167   26.6412 C   0  0  0  0  0  0  0  0  0  0  0  0
    3.2786    0.8619   25.3439 C   0  0  0  0  0  0  0  0  0  0  0  0
    2.6774    2.0589   25.0155 O   0  0  0  0  0  0  0  0  0  0  0  0
    1.9782    2.4181   26.2162 C   0  0  0  0  0  0  0  0  0  0  0  0
    2.0909    1.4308   27.2467 O   0  0  0  0  0  0  0  0  0  0  0  0
    6.0736    0.7509   21.6155 N   0  0  0  0  0  0  0  0  0  0  0  0
    7.0134   -0.3716   20.3425 C   0  0  0  0  0  0  0  0  0  0  0  0
    7.1349    0.0703   18.9936 C   0  0  0  0  0  0  0  0  0  0  0  0
    7.4004    1.5862   19.0988 C   0  0  0  0  0  0  0  0  0  0  0  0
    8.3800    1.9573   17.7099 C   0  0  0  0  0  0  0  0  0  0  0  0
    8.8995    3.1058   17.1247 C   0  0  0  0  0  0  0  0  0  0  0  0
    9.7119    2.6393   16.0665 C   0  0  0  0  0  0  0  0  0  0  0  0
    9.5640    1.3292   15.8632 N   0  0  0  0  0  0  0  0  0  0  0  0
    8.5765    1.0222   16.7081 N   0  0  0  0  0  0  0  0  0  0  0  0
    7.2615    1.9503   20.9530 C   0  0  0  0  0  0  0  0  0  0  0  0
    4.8554   -2.0282   24.4994 H   0  0  0  0  0  0  0  0  0  0  0  0
    4.1184   -2.5900   26.7876 H   0  0  0  0  0  0  0  0  0  0  0  0
    2.8846   -0.9722   28.1869 H   0  0  0  0  0  0  0  0  0  0  0  0
    0.9184    2.5607   25.9764 H   0  0  0  0  0  0  0  0  0  0  0  0
    2.3821    3.3667   26.5880 H   0  0  0  0  0  0  0  0  0  0  0  0
    6.8673   -1.3853   20.6550 H   0  0  0  0  0  0  0  0  0  0  0  0
    8.0701   -0.2904   20.6052 H   0  0  0  0  0  0  0  0  0  0  0  0
    6.4153   -0.4359   18.3606 H   0  0  0  0  0  0  0  0  0  0  0  0
    7.9892   -0.4166   18.5584 H   0  0  0  0  0  0  0  0  0  0  0  0
    6.8432    2.4386   18.7314 H   0  0  0  0  0  0  0  0  0  0  0  0
    8.8244    4.1223   17.4823 H   0  0  0  0  0  0  0  0  0  0  0  0
   10.3893    3.2027   15.4380 H   0  0  0  0  0  0  0  0  0  0  0  0
    8.0657    0.1608   16.5656 H   0  0  0  0  0  0  0  0  0  0  0  0
    6.8580    2.9680   21.1486 H   0  0  0  0  0  0  0  0  0  0  0  0
    8.1652    1.7491   21.5422 H   0  0  0  0  0  0  0  0  0  0  0  0
  1  2  2  0
  2  3  2  0
  2  4  1  0
  4  5  2  0
  5  6  1  0
  6  7  2  0
  7  8  1  0
  8  9  2  0
  9 10  1  0
 10 11  1  0
 11 12  1  0
  2 13  1  0
 13 14  1  0
 14 15  1  0
 15 16  1  0
 16 17  1  0
 17 18  2  0
 18 19  1  0
 19 20  2  0
 20 21  1  0
 16 22  1  0
  9  4  1  0
 22 13  1  0
 12  8  1  0
 21 17  1  0
  5 23  1  0
  6 24  1  0
  7 25  1  0
 11 26  1  0
 11 27  1  0
 14 28  1  0
 14 29  1  0
 15 30  1  0
 15 31  1  0
 16 32  1  0
 18 33  1  0
 19 34  1  0
 21 35  1  0
 22 36  1  0
 22 37  1  0
M  END
>  <Energy>  (1068) 
345.58653980873049

>  <compound_id>  (1068) 
17660

>  <target_id>  (1068) 
1

>  <reference_id>  (1068) 
122

>  <inspiration_ids>  (1068) 
[13, 122]

>  <energy_score>  (1068) 
305.0640009697432

>  <distance_score>  (1068) 
5.359793657457423

>  <path>  (1068) 
/opt/xchem-fragalysis-2/maxwin/BulkDock/SCRATCH/511014/C17660-P122/C17660-P122.minimised.mol

>  <scratch_subdir>  (1068) 
/opt/xchem-fragalysis-2/maxwin/BulkDock/SCRATCH/511014/C17660-P122

>  <fragmenstein_runtime>  (1068) 
6.413456916809082

>  <fragmenstein_outcome>  (1068) 
too moved

>  <fragmenstein_mode>  (1068) 
expansion

>  <fragmenstein_error>  (1068) 


$$$$
C17661-P13
     RDKit          3D

 35 37  0  0  0  0  0  0  0  0999 V2000
    3.2887   -4.1880   27.9283 O   0  0  0  0  0  0  0  0  0  0  0  0
    3.6181   -3.0826   27.5264 C   0  0  0  0  0  0  0  0  0  0  0  0
    4.7244   -2.8168   26.7776 O   0  0  0  0  0  0  0  0  0  0  0  0
    5.6708   -3.9078   26.6266 C   0  0  0  0  0  0  0  0  0  0  0  0
    5.4049   -4.7806   25.3857 C   0  0  0  0  0  0  0  0  0  0  0  0
    6.0321   -4.3070   24.1412 N   0  0  0  0  0  0  0  0  0  0  0  0
    6.5953   -5.0605   22.9689 C   0  0  0  0  0  0  0  0  0  0  0  0
    6.5765   -6.2351   22.7638 O   0  0  0  0  0  0  0  0  0  0  0  0
    7.3530   -4.0670   21.4692 C   0  0  0  0  0  0  0  0  0  0  0  0
    7.5272   -4.5745   20.1329 C   0  0  0  0  0  0  0  0  0  0  0  0
    9.4698   -5.2768   19.9992 C   0  0  0  0  0  0  0  0  0  0  0  0
    9.8914   -4.8270   21.1195 N   0  0  0  0  0  0  0  0  0  0  0  0
    8.5172   -4.0821   20.5101 N   0  0  0  0  0  0  0  0  0  0  0  0
    2.7858   -1.8584   27.7534 C   0  0  0  0  0  0  0  0  0  0  0  0
    3.2553   -0.5656   27.4387 C   0  0  0  0  0  0  0  0  0  0  0  0
    2.3907    0.5373   27.4985 C   0  0  0  0  0  0  0  0  0  0  0  0
    3.0271    2.2505   27.0236 Br  0  0  0  0  0  0  0  0  0  0  0  0
    1.0703    0.3311   27.8495 C   0  0  0  0  0  0  0  0  0  0  0  0
    0.6263   -0.9209   28.2049 C   0  0  0  0  0  0  0  0  0  0  0  0
    1.4597   -2.0256   28.1985 C   0  0  0  0  0  0  0  0  0  0  0  0
   -0.7040   -0.9350   28.4946 O   0  0  0  0  0  0  0  0  0  0  0  0
   -1.0790    0.3994   28.0994 C   0  0  0  0  0  0  0  0  0  0  0  0
    0.0623    1.2487   27.8549 O   0  0  0  0  0  0  0  0  0  0  0  0
    6.6690   -3.4625   26.6025 H   0  0  0  0  0  0  0  0  0  0  0  0
    5.6414   -4.5362   27.5254 H   0  0  0  0  0  0  0  0  0  0  0  0
    4.3295   -4.8729   25.2334 H   0  0  0  0  0  0  0  0  0  0  0  0
    5.8086   -5.7848   25.5536 H   0  0  0  0  0  0  0  0  0  0  0  0
    6.2843   -3.3371   24.0558 H   0  0  0  0  0  0  0  0  0  0  0  0
    6.7394   -5.0593   19.4964 H   0  0  0  0  0  0  0  0  0  0  0  0
   10.0514   -5.6856   19.2166 H   0  0  0  0  0  0  0  0  0  0  0  0
    9.0183   -3.2231   20.4177 H   0  0  0  0  0  0  0  0  0  0  0  0
    4.2812   -0.4242   27.1050 H   0  0  0  0  0  0  0  0  0  0  0  0
    1.0633   -3.0063   28.4457 H   0  0  0  0  0  0  0  0  0  0  0  0
   -1.6878    0.3463   27.1882 H   0  0  0  0  0  0  0  0  0  0  0  0
   -1.6809    0.8417   28.8989 H   0  0  0  0  0  0  0  0  0  0  0  0
  1  2  2  0
  2  3  1  0
  3  4  1  0
  4  5  1  0
  5  6  1  0
  6  7  1  0
  7  8  2  0
  7  9  1  0
  9 10  2  0
 10 11  1  0
 11 12  2  0
 12 13  1  0
  2 14  1  0
 14 15  2  0
 15 16  1  0
 16 17  1  0
 16 18  2  0
 18 19  1  0
 19 20  2  0
 19 21  1  0
 21 22  1  0
 22 23  1  0
 13  9  1  0
 20 14  1  0
 23 18  1  0
  4 24  1  0
  4 25  1  0
  5 26  1  0
  5 27  1  0
  6 28  1  0
 10 29  1  0
 11 30  1  0
 13 31  1  0
 15 32  1  0
 20 33  1  0
 22 34  1  0
 22 35  1  0
M  END
>  <Energy>  (1069) 
430.64864348391939

>  <compound_id>  (1069) 
17661

>  <target_id>  (1069) 
1

>  <reference_id>  (1069) 
13

>  <inspiration_ids>  (1069) 
[13, 122]

>  <energy_score>  (1069) 
393.0076859119313

>  <distance_score>  (1069) 
6.232561913149314

>  <path>  (1069) 
/opt/xchem-fragalysis-2/maxwin/BulkDock/SCRATCH/511014/C17661-P13/C17661-P13.minimised.mol

>  <scratch_subdir>  (1069) 
/opt/xchem-fragalysis-2/maxwin/BulkDock/SCRATCH/511014/C17661-P13

>  <fragmenstein_runtime>  (1069) 
8.97038745880127

>  <fragmenstein_outcome>  (1069) 
too moved

>  <fragmenstein_mode>  (1069) 
expansion

>  <fragmenstein_error>  (1069) 


$$$$
C17661-P122
     RDKit          3D

 35 37  0  0  0  0  0  0  0  0999 V2000
    2.2426   -2.2108   28.1754 O   0  0  0  0  0  0  0  0  0  0  0  0
    2.5242   -1.0593   27.8966 C   0  0  0  0  0  0  0  0  0  0  0  0
    3.6783   -0.6006   27.3526 O   0  0  0  0  0  0  0  0  0  0  0  0
    4.3164   -1.4753   26.3935 C   0  0  0  0  0  0  0  0  0  0  0  0
    3.8267   -1.0537   25.0046 C   0  0  0  0  0  0  0  0  0  0  0  0
    4.5161   -1.6488   23.8459 N   0  0  0  0  0  0  0  0  0  0  0  0
    4.9434   -0.9731   22.3704 C   0  0  0  0  0  0  0  0  0  0  0  0
    4.7016    0.1341   21.9043 O   0  0  0  0  0  0  0  0  0  0  0  0
    5.7439   -1.7077   21.6311 C   0  0  0  0  0  0  0  0  0  0  0  0
    6.8910   -1.6618   20.7792 C   0  0  0  0  0  0  0  0  0  0  0  0
    7.6698   -3.3957   21.3228 C   0  0  0  0  0  0  0  0  0  0  0  0
    6.9975   -3.6939   22.5046 N   0  0  0  0  0  0  0  0  0  0  0  0
    5.7285   -2.9761   21.5269 N   0  0  0  0  0  0  0  0  0  0  0  0
    1.5879    0.0898   28.0074 C   0  0  0  0  0  0  0  0  0  0  0  0
    2.0704    1.4105   28.1231 C   0  0  0  0  0  0  0  0  0  0  0  0
    1.1989    2.4899   27.9779 C   0  0  0  0  0  0  0  0  0  0  0  0
    1.8608    4.2538   28.0789 Br  0  0  0  0  0  0  0  0  0  0  0  0
   -0.1283    2.2299   27.7051 C   0  0  0  0  0  0  0  0  0  0  0  0
   -0.6040    0.9398   27.6413 C   0  0  0  0  0  0  0  0  0  0  0  0
    0.2189   -0.1534   27.8222 C   0  0  0  0  0  0  0  0  0  0  0  0
   -1.9221    0.8915   27.3068 O   0  0  0  0  0  0  0  0  0  0  0  0
   -2.2110    2.2936   27.1184 C   0  0  0  0  0  0  0  0  0  0  0  0
   -1.0944    3.1456   27.4269 O   0  0  0  0  0  0  0  0  0  0  0  0
    4.0683   -2.5179   26.5990 H   0  0  0  0  0  0  0  0  0  0  0  0
    5.3961   -1.3324   26.4908 H   0  0  0  0  0  0  0  0  0  0  0  0
    3.8544    0.0360   24.9778 H   0  0  0  0  0  0  0  0  0  0  0  0
    2.8052   -1.3713   24.9525 H   0  0  0  0  0  0  0  0  0  0  0  0
    4.9345   -2.5181   23.9441 H   0  0  0  0  0  0  0  0  0  0  0  0
    7.3885   -0.8880   20.1813 H   0  0  0  0  0  0  0  0  0  0  0  0
    8.1413   -4.1524   20.6846 H   0  0  0  0  0  0  0  0  0  0  0  0
    5.5849   -3.3477   20.5772 H   0  0  0  0  0  0  0  0  0  0  0  0
    3.1327    1.5902   28.2747 H   0  0  0  0  0  0  0  0  0  0  0  0
   -0.1643   -1.1648   27.7205 H   0  0  0  0  0  0  0  0  0  0  0  0
   -2.5055    2.4553   26.0750 H   0  0  0  0  0  0  0  0  0  0  0  0
   -3.0417    2.5685   27.7646 H   0  0  0  0  0  0  0  0  0  0  0  0
  1  2  2  0
  2  3  1  0
  3  4  1  0
  4  5  1  0
  5  6  1  0
  6  7  1  0
  7  8  2  0
  7  9  1  0
  9 10  2  0
 10 11  1  0
 11 12  2  0
 12 13  1  0
  2 14  1  0
 14 15  2  0
 15 16  1  0
 16 17  1  0
 16 18  2  0
 18 19  1  0
 19 20  2  0
 19 21  1  0
 21 22  1  0
 22 23  1  0
 13  9  1  0
 20 14  1  0
 23 18  1  0
  4 24  1  0
  4 25  1  0
  5 26  1  0
  5 27  1  0
  6 28  1  0
 10 29  1  0
 11 30  1  0
 13 31  1  0
 15 32  1  0
 20 33  1  0
 22 34  1  0
 22 35  1  0
M  END
>  <Energy>  (1070) 
237.38317071816522

>  <compound_id>  (1070) 
17661

>  <target_id>  (1070) 
1

>  <reference_id>  (1070) 
122

>  <inspiration_ids>  (1070) 
[13, 122]

>  <energy_score>  (1070) 
199.74221314618683

>  <distance_score>  (1070) 
6.147348531451786

>  <path>  (1070) 
/opt/xchem-fragalysis-2/maxwin/BulkDock/SCRATCH/511014/C17661-P122/C17661-P122.minimised.mol

>  <scratch_subdir>  (1070) 
/opt/xchem-fragalysis-2/maxwin/BulkDock/SCRATCH/511014/C17661-P122

>  <fragmenstein_runtime>  (1070) 
7.193753719329834

>  <fragmenstein_outcome>  (1070) 
too moved

>  <fragmenstein_mode>  (1070) 
expansion

>  <fragmenstein_error>  (1070) 


$$$$
C17642-P13
     RDKit          3D

 34 37  0  0  0  0  0  0  0  0999 V2000
    4.4284   -2.2006   26.6998 C   0  0  0  0  0  0  0  0  0  0  0  0
    4.8319   -1.8774   25.3792 C   0  0  0  0  0  0  0  0  0  0  0  0
    4.5286   -0.6454   24.7998 C   0  0  0  0  0  0  0  0  0  0  0  0
    4.9766   -0.1880   23.5430 N   0  0  0  0  0  0  0  0  0  0  0  0
    5.1243   -0.8860   21.8120 C   0  0  0  0  0  0  0  0  0  0  0  0
    6.6833   -0.6528   20.4712 C   0  0  0  0  0  0  0  0  0  0  0  0
    6.7130    0.5243   19.7847 C   0  0  0  0  0  0  0  0  0  0  0  0
    7.6841    1.3370   19.2620 C   0  0  0  0  0  0  0  0  0  0  0  0
    8.1921    0.3196   18.5819 C   0  0  0  0  0  0  0  0  0  0  0  0
    8.8488    0.4822   17.2826 C   0  0  0  0  0  0  0  0  0  0  0  0
    9.4428    1.6231   16.7644 C   0  0  0  0  0  0  0  0  0  0  0  0
   10.0030    1.2441   15.5359 C   0  0  0  0  0  0  0  0  0  0  0  0
    9.7266   -0.0233   15.2471 N   0  0  0  0  0  0  0  0  0  0  0  0
    8.8814   -0.3866   16.2191 N   0  0  0  0  0  0  0  0  0  0  0  0
    8.0190   -0.8129   19.6812 O   0  0  0  0  0  0  0  0  0  0  0  0
    3.8606    0.2563   25.6582 C   0  0  0  0  0  0  0  0  0  0  0  0
    3.4425   -0.0634   26.9345 C   0  0  0  0  0  0  0  0  0  0  0  0
    3.7100   -1.2933   27.4835 C   0  0  0  0  0  0  0  0  0  0  0  0
    2.7620    0.9446   27.5445 O   0  0  0  0  0  0  0  0  0  0  0  0
    2.8702    1.9803   26.5515 C   0  0  0  0  0  0  0  0  0  0  0  0
    3.4903    1.5376   25.3291 O   0  0  0  0  0  0  0  0  0  0  0  0
    4.7003   -3.1717   27.1079 H   0  0  0  0  0  0  0  0  0  0  0  0
    5.4151   -2.6079   24.8319 H   0  0  0  0  0  0  0  0  0  0  0  0
    4.3654    0.6229   23.3620 H   0  0  0  0  0  0  0  0  0  0  0  0
    5.0047   -1.8932   22.3312 H   0  0  0  0  0  0  0  0  0  0  0  0
    4.4428   -0.1177   21.5095 H   0  0  0  0  0  0  0  0  0  0  0  0
    5.8154    0.6140   20.3195 H   0  0  0  0  0  0  0  0  0  0  0  0
    7.6541    2.3845   19.0000 H   0  0  0  0  0  0  0  0  0  0  0  0
    9.5118    2.5901   17.2436 H   0  0  0  0  0  0  0  0  0  0  0  0
   10.6006    1.8302   14.8501 H   0  0  0  0  0  0  0  0  0  0  0  0
    8.3803   -1.2527   16.0774 H   0  0  0  0  0  0  0  0  0  0  0  0
    3.3951   -1.5400   28.4900 H   0  0  0  0  0  0  0  0  0  0  0  0
    1.8667    2.3562   26.3235 H   0  0  0  0  0  0  0  0  0  0  0  0
    3.4626    2.8046   26.9660 H   0  0  0  0  0  0  0  0  0  0  0  0
  1  2  2  0
  2  3  1  0
  3  4  1  0
  4  5  1  0
  5  6  1  0
  6  7  2  0
  7  8  1  0
  8  9  2  0
  9 10  1  0
 10 11  2  0
 11 12  1  0
 12 13  2  0
 13 14  1  0
  9 15  1  0
  3 16  2  0
 16 17  1  0
 17 18  2  0
 17 19  1  0
 19 20  1  0
 20 21  1  0
 18  1  1  0
 15  6  1  0
 21 16  1  0
 14 10  1  0
  1 22  1  0
  2 23  1  0
  4 24  1  0
  5 25  1  0
  5 26  1  0
  7 27  1  0
  8 28  1  0
 11 29  1  0
 12 30  1  0
 14 31  1  0
 18 32  1  0
 20 33  1  0
 20 34  1  0
M  END
>  <Energy>  (1071) 
396.35127542174564

>  <compound_id>  (1071) 
17642

>  <target_id>  (1071) 
1

>  <reference_id>  (1071) 
13

>  <inspiration_ids>  (1071) 
[13, 122]

>  <energy_score>  (1071) 
320.28584280359695

>  <distance_score>  (1071) 
5.35682447721668

>  <path>  (1071) 
/opt/xchem-fragalysis-2/maxwin/BulkDock/SCRATCH/511014/C17642-P13/C17642-P13.minimised.mol

>  <scratch_subdir>  (1071) 
/opt/xchem-fragalysis-2/maxwin/BulkDock/SCRATCH/511014/C17642-P13

>  <fragmenstein_runtime>  (1071) 
6.606355905532837

>  <fragmenstein_outcome>  (1071) 
too moved

>  <fragmenstein_mode>  (1071) 
expansion

>  <fragmenstein_error>  (1071) 


$$$$
C17642-P122
     RDKit          3D

 34 37  0  0  0  0  0  0  0  0999 V2000
    5.7765   -0.7127   26.7836 C   0  0  0  0  0  0  0  0  0  0  0  0
    5.9091   -1.5561   25.6199 C   0  0  0  0  0  0  0  0  0  0  0  0
    4.9138   -1.7648   24.6323 C   0  0  0  0  0  0  0  0  0  0  0  0
    5.0102   -1.8595   23.1220 N   0  0  0  0  0  0  0  0  0  0  0  0
    5.8414   -1.7639   21.4662 C   0  0  0  0  0  0  0  0  0  0  0  0
    7.0274   -0.5987   20.3526 C   0  0  0  0  0  0  0  0  0  0  0  0
    7.4002    0.7700   20.3118 C   0  0  0  0  0  0  0  0  0  0  0  0
    7.4259    1.2409   18.9818 C   0  0  0  0  0  0  0  0  0  0  0  0
    7.7300    0.1251   18.1962 C   0  0  0  0  0  0  0  0  0  0  0  0
    8.4373    0.2106   16.9072 C   0  0  0  0  0  0  0  0  0  0  0  0
    9.2453    1.2370   16.4349 C   0  0  0  0  0  0  0  0  0  0  0  0
    9.9786    0.6717   15.3824 C   0  0  0  0  0  0  0  0  0  0  0  0
    9.6047   -0.5832   15.1596 N   0  0  0  0  0  0  0  0  0  0  0  0
    8.5296   -0.7411   15.9319 N   0  0  0  0  0  0  0  0  0  0  0  0
    7.6487   -0.9112   19.1708 O   0  0  0  0  0  0  0  0  0  0  0  0
    3.7043   -1.5428   25.3248 C   0  0  0  0  0  0  0  0  0  0  0  0
    3.5348   -0.5854   26.3708 C   0  0  0  0  0  0  0  0  0  0  0  0
    4.5993   -0.0603   27.0530 C   0  0  0  0  0  0  0  0  0  0  0  0
    2.3899   -0.7817   27.1217 O   0  0  0  0  0  0  0  0  0  0  0  0
    2.4191   -2.2058   27.0606 C   0  0  0  0  0  0  0  0  0  0  0  0
    3.0798   -2.6950   25.8778 O   0  0  0  0  0  0  0  0  0  0  0  0
    6.6472   -0.5663   27.4176 H   0  0  0  0  0  0  0  0  0  0  0  0
    6.9188   -1.9413   25.5487 H   0  0  0  0  0  0  0  0  0  0  0  0
    4.1912   -1.2463   22.9479 H   0  0  0  0  0  0  0  0  0  0  0  0
    5.2760   -2.4963   20.8571 H   0  0  0  0  0  0  0  0  0  0  0  0
    6.2646   -2.7815   21.2648 H   0  0  0  0  0  0  0  0  0  0  0  0
    7.4204    1.5129   21.1023 H   0  0  0  0  0  0  0  0  0  0  0  0
    7.4822    2.2547   18.5947 H   0  0  0  0  0  0  0  0  0  0  0  0
    9.3903    2.2144   16.8720 H   0  0  0  0  0  0  0  0  0  0  0  0
   10.7809    1.1005   14.7959 H   0  0  0  0  0  0  0  0  0  0  0  0
    7.9757   -1.5760   15.7886 H   0  0  0  0  0  0  0  0  0  0  0  0
    4.4767    0.5515   27.9364 H   0  0  0  0  0  0  0  0  0  0  0  0
    2.9588   -2.5915   27.9374 H   0  0  0  0  0  0  0  0  0  0  0  0
    1.4004   -2.5904   27.1409 H   0  0  0  0  0  0  0  0  0  0  0  0
  1  2  2  0
  2  3  1  0
  3  4  1  0
  4  5  1  0
  5  6  1  0
  6  7  2  0
  7  8  1  0
  8  9  2  0
  9 10  1  0
 10 11  2  0
 11 12  1  0
 12 13  2  0
 13 14  1  0
  9 15  1  0
  3 16  2  0
 16 17  1  0
 17 18  2  0
 17 19  1  0
 19 20  1  0
 20 21  1  0
 18  1  1  0
 15  6  1  0
 21 16  1  0
 14 10  1  0
  1 22  1  0
  2 23  1  0
  4 24  1  0
  5 25  1  0
  5 26  1  0
  7 27  1  0
  8 28  1  0
 11 29  1  0
 12 30  1  0
 14 31  1  0
 18 32  1  0
 20 33  1  0
 20 34  1  0
M  END
>  <Energy>  (1072) 
370.80668815484864

>  <compound_id>  (1072) 
17642

>  <target_id>  (1072) 
1

>  <reference_id>  (1072) 
122

>  <inspiration_ids>  (1072) 
[13, 122]

>  <energy_score>  (1072) 
294.7412555367085

>  <distance_score>  (1072) 
5.729493793391545

>  <path>  (1072) 
/opt/xchem-fragalysis-2/maxwin/BulkDock/SCRATCH/511014/C17642-P122/C17642-P122.minimised.mol

>  <scratch_subdir>  (1072) 
/opt/xchem-fragalysis-2/maxwin/BulkDock/SCRATCH/511014/C17642-P122

>  <fragmenstein_runtime>  (1072) 
6.662917613983154

>  <fragmenstein_outcome>  (1072) 
too moved

>  <fragmenstein_mode>  (1072) 
expansion

>  <fragmenstein_error>  (1072) 


$$$$
C17662-P13
     RDKit          3D

 37 40  0  0  0  0  0  0  0  0999 V2000
    7.7912    0.6816   18.3684 C   0  0  0  0  0  0  0  0  0  0  0  0
    7.3157   -0.1965   19.3974 C   0  0  0  0  0  0  0  0  0  0  0  0
    6.2858    0.1551   20.3867 C   0  0  0  0  0  0  0  0  0  0  0  0
    5.0193   -0.6034   21.7983 C   0  0  0  0  0  0  0  0  0  0  0  0
    4.8718    0.2698   23.3453 C   0  0  0  0  0  0  0  0  0  0  0  0
    4.5857   -0.3387   24.5941 C   0  0  0  0  0  0  0  0  0  0  0  0
    4.6531   -1.6654   24.3533 C   0  0  0  0  0  0  0  0  0  0  0  0
    4.8166   -2.7310   25.4647 C   0  0  0  0  0  0  0  0  0  0  0  0
    3.7487   -2.8143   26.5099 N   0  0  0  0  0  0  0  0  0  0  0  0
    3.8855   -1.8556   27.6233 C   0  0  0  0  0  0  0  0  0  0  0  0
    2.6917   -0.9318   27.8042 C   0  0  0  0  0  0  0  0  0  0  0  0
    2.8721    0.4725   27.7510 C   0  0  0  0  0  0  0  0  0  0  0  0
    1.7894    1.3566   27.8205 C   0  0  0  0  0  0  0  0  0  0  0  0
    0.5337    0.8162   27.9605 C   0  0  0  0  0  0  0  0  0  0  0  0
    0.3436   -0.5385   28.0861 C   0  0  0  0  0  0  0  0  0  0  0  0
    1.3979   -1.4329   28.0349 C   0  0  0  0  0  0  0  0  0  0  0  0
   -0.9703   -0.8591   28.2303 O   0  0  0  0  0  0  0  0  0  0  0  0
   -1.5840    0.4326   28.0496 C   0  0  0  0  0  0  0  0  0  0  0  0
   -0.6321    1.5139   27.9799 O   0  0  0  0  0  0  0  0  0  0  0  0
    4.9070   -1.9186   22.9324 O   0  0  0  0  0  0  0  0  0  0  0  0
    7.3549    1.5397   20.0692 N   0  0  0  0  0  0  0  0  0  0  0  0
    7.5649    1.8864   18.7980 N   0  0  0  0  0  0  0  0  0  0  0  0
    8.3486    0.5215   17.4560 H   0  0  0  0  0  0  0  0  0  0  0  0
    7.8904   -1.0179   19.4624 H   0  0  0  0  0  0  0  0  0  0  0  0
    4.6922    1.3465   23.2127 H   0  0  0  0  0  0  0  0  0  0  0  0
    4.4282    0.1692   25.5262 H   0  0  0  0  0  0  0  0  0  0  0  0
    5.7775   -2.5483   25.9625 H   0  0  0  0  0  0  0  0  0  0  0  0
    4.9173   -3.7278   25.0371 H   0  0  0  0  0  0  0  0  0  0  0  0
    3.8274   -3.7446   26.9178 H   0  0  0  0  0  0  0  0  0  0  0  0
    4.0009   -2.4208   28.5576 H   0  0  0  0  0  0  0  0  0  0  0  0
    4.8057   -1.2660   27.5324 H   0  0  0  0  0  0  0  0  0  0  0  0
    3.8696    0.8895   27.6286 H   0  0  0  0  0  0  0  0  0  0  0  0
    1.9301    2.4285   27.7428 H   0  0  0  0  0  0  0  0  0  0  0  0
    1.2098   -2.4980   28.1081 H   0  0  0  0  0  0  0  0  0  0  0  0
   -2.2443    0.6168   28.9019 H   0  0  0  0  0  0  0  0  0  0  0  0
   -2.1799    0.4208   27.1292 H   0  0  0  0  0  0  0  0  0  0  0  0
    8.2629    1.5708   20.5223 H   0  0  0  0  0  0  0  0  0  0  0  0
  1  2  1  0
  2  3  2  0
  3  4  1  0
  4  5  2  0
  5  6  1  0
  6  7  2  0
  7  8  1  0
  8  9  1  0
  9 10  1  0
 10 11  1  0
 11 12  2  0
 12 13  1  0
 13 14  2  0
 14 15  1  0
 15 16  2  0
 15 17  1  0
 17 18  1  0
 18 19  1  0
  7 20  1  0
  3 21  1  0
 21 22  1  0
 22  1  2  0
 20  4  1  0
 16 11  1  0
 19 14  1  0
  1 23  1  0
  2 24  1  0
  5 25  1  0
  6 26  1  0
  8 27  1  0
  8 28  1  0
  9 29  1  0
 10 30  1  0
 10 31  1  0
 12 32  1  0
 13 33  1  0
 16 34  1  0
 18 35  1  0
 18 36  1  0
 21 37  1  0
M  END
>  <Energy>  (1073) 
436.07490757371852

>  <compound_id>  (1073) 
17662

>  <target_id>  (1073) 
1

>  <reference_id>  (1073) 
13

>  <inspiration_ids>  (1073) 
[13, 122]

>  <energy_score>  (1073) 
374.5100933949186

>  <distance_score>  (1073) 
6.369424487543545

>  <path>  (1073) 
/opt/xchem-fragalysis-2/maxwin/BulkDock/SCRATCH/511014/C17662-P13/C17662-P13.minimised.mol

>  <scratch_subdir>  (1073) 
/opt/xchem-fragalysis-2/maxwin/BulkDock/SCRATCH/511014/C17662-P13

>  <fragmenstein_runtime>  (1073) 
6.1557183265686035

>  <fragmenstein_outcome>  (1073) 
too moved

>  <fragmenstein_mode>  (1073) 
expansion

>  <fragmenstein_error>  (1073) 


$$$$
C17662-P122
     RDKit          3D

 37 40  0  0  0  0  0  0  0  0999 V2000
    4.5293   -0.6766   26.0009 C   0  0  0  0  0  0  0  0  0  0  0  0
    3.6829   -1.5934   26.6133 C   0  0  0  0  0  0  0  0  0  0  0  0
    4.3296   -1.9116   27.7806 C   0  0  0  0  0  0  0  0  0  0  0  0
    3.7760   -2.5169   28.9386 C   0  0  0  0  0  0  0  0  0  0  0  0
    4.2778   -2.6555   30.2216 C   0  0  0  0  0  0  0  0  0  0  0  0
    3.1954   -3.0606   31.0552 C   0  0  0  0  0  0  0  0  0  0  0  0
    2.0982   -3.1855   30.2335 C   0  0  0  0  0  0  0  0  0  0  0  0
    0.6494   -3.4601   30.4642 C   0  0  0  0  0  0  0  0  0  0  0  0
   -0.1599   -2.2643   30.2226 N   0  0  0  0  0  0  0  0  0  0  0  0
   -0.4577   -2.0910   28.7960 C   0  0  0  0  0  0  0  0  0  0  0  0
   -0.5652   -0.6331   28.4159 C   0  0  0  0  0  0  0  0  0  0  0  0
    0.5108    0.2532   28.6577 C   0  0  0  0  0  0  0  0  0  0  0  0
    0.4604    1.5865   28.2373 C   0  0  0  0  0  0  0  0  0  0  0  0
   -0.6678    2.0033   27.5674 C   0  0  0  0  0  0  0  0  0  0  0  0
   -1.7102    1.1473   27.3104 C   0  0  0  0  0  0  0  0  0  0  0  0
   -1.6928   -0.1675   27.7251 C   0  0  0  0  0  0  0  0  0  0  0  0
   -2.7010    1.7400   26.5914 O   0  0  0  0  0  0  0  0  0  0  0  0
   -2.2263    3.1029   26.5480 C   0  0  0  0  0  0  0  0  0  0  0  0
   -0.8875    3.2489   27.0687 O   0  0  0  0  0  0  0  0  0  0  0  0
    2.4740   -2.9459   28.9478 O   0  0  0  0  0  0  0  0  0  0  0  0
    5.5861   -1.3967   27.6566 N   0  0  0  0  0  0  0  0  0  0  0  0
    5.6774   -0.5020   26.6646 N   0  0  0  0  0  0  0  0  0  0  0  0
    4.2969   -0.0956   25.1270 H   0  0  0  0  0  0  0  0  0  0  0  0
    2.6753   -1.8551   26.3357 H   0  0  0  0  0  0  0  0  0  0  0  0
    5.2749   -2.3955   30.5464 H   0  0  0  0  0  0  0  0  0  0  0  0
    3.2075   -3.1848   32.1285 H   0  0  0  0  0  0  0  0  0  0  0  0
    0.5206   -3.7515   31.5135 H   0  0  0  0  0  0  0  0  0  0  0  0
    0.3098   -4.3111   29.8618 H   0  0  0  0  0  0  0  0  0  0  0  0
   -1.0394   -2.3230   30.7258 H   0  0  0  0  0  0  0  0  0  0  0  0
   -1.4000   -2.6075   28.5857 H   0  0  0  0  0  0  0  0  0  0  0  0
    0.2860   -2.5425   28.1320 H   0  0  0  0  0  0  0  0  0  0  0  0
    1.4028   -0.1137   29.1645 H   0  0  0  0  0  0  0  0  0  0  0  0
    1.2883    2.2620   28.4184 H   0  0  0  0  0  0  0  0  0  0  0  0
   -2.5197   -0.8286   27.4923 H   0  0  0  0  0  0  0  0  0  0  0  0
   -2.9039    3.7414   27.1245 H   0  0  0  0  0  0  0  0  0  0  0  0
   -2.2314    3.4374   25.5047 H   0  0  0  0  0  0  0  0  0  0  0  0
    6.3757   -1.5054   28.2795 H   0  0  0  0  0  0  0  0  0  0  0  0
  1  2  1  0
  2  3  2  0
  3  4  1  0
  4  5  2  0
  5  6  1  0
  6  7  2  0
  7  8  1  0
  8  9  1  0
  9 10  1  0
 10 11  1  0
 11 12  2  0
 12 13  1  0
 13 14  2  0
 14 15  1  0
 15 16  2  0
 15 17  1  0
 17 18  1  0
 18 19  1  0
  7 20  1  0
  3 21  1  0
 21 22  1  0
 22  1  2  0
 20  4  1  0
 16 11  1  0
 19 14  1  0
  1 23  1  0
  2 24  1  0
  5 25  1  0
  6 26  1  0
  8 27  1  0
  8 28  1  0
  9 29  1  0
 10 30  1  0
 10 31  1  0
 12 32  1  0
 13 33  1  0
 16 34  1  0
 18 35  1  0
 18 36  1  0
 21 37  1  0
M  END
>  <Energy>  (1074) 
32.071238197752372

>  <compound_id>  (1074) 
17662

>  <target_id>  (1074) 
1

>  <reference_id>  (1074) 
122

>  <inspiration_ids>  (1074) 
[13, 122]

>  <energy_score>  (1074) 
-29.493575981033246

>  <distance_score>  (1074) 
7.71497008038401

>  <path>  (1074) 
/opt/xchem-fragalysis-2/maxwin/BulkDock/SCRATCH/511014/C17662-P122/C17662-P122.minimised.mol

>  <scratch_subdir>  (1074) 
/opt/xchem-fragalysis-2/maxwin/BulkDock/SCRATCH/511014/C17662-P122

>  <fragmenstein_runtime>  (1074) 
8.464520692825317

>  <fragmenstein_outcome>  (1074) 
too moved

>  <fragmenstein_mode>  (1074) 
expansion

>  <fragmenstein_error>  (1074) 


$$$$
C17663-P13
     RDKit          3D

 43 46  0  0  0  0  0  0  0  0999 V2000
    5.6796   -1.2603   26.9873 C   0  0  0  0  0  0  0  0  0  0  0  0
    4.3459   -1.2200   26.3957 N   0  0  0  0  0  0  0  0  0  0  0  0
    3.3088   -1.3154   27.4573 C   0  0  0  0  0  0  0  0  0  0  0  0
    2.9949   -0.1076   28.3592 C   0  0  0  0  0  0  0  0  0  0  0  0
    1.8224    0.7352   27.9070 C   0  0  0  0  0  0  0  0  0  0  0  0
    2.0431    2.0586   27.4670 C   0  0  0  0  0  0  0  0  0  0  0  0
    0.9856    2.8577   27.0243 C   0  0  0  0  0  0  0  0  0  0  0  0
   -0.2792    2.3152   27.0376 C   0  0  0  0  0  0  0  0  0  0  0  0
   -0.5161    1.0400   27.4890 C   0  0  0  0  0  0  0  0  0  0  0  0
    0.5092    0.2263   27.9299 C   0  0  0  0  0  0  0  0  0  0  0  0
   -1.8320    0.7051   27.4159 O   0  0  0  0  0  0  0  0  0  0  0  0
   -2.3864    1.9002   26.8239 C   0  0  0  0  0  0  0  0  0  0  0  0
   -1.4060    2.9321   26.5974 O   0  0  0  0  0  0  0  0  0  0  0  0
    4.2090   -0.0767   25.4440 C   0  0  0  0  0  0  0  0  0  0  0  0
    4.9011   -0.1401   24.0164 C   0  0  0  0  0  0  0  0  0  0  0  0
    4.4268   -1.3643   23.4554 C   0  0  0  0  0  0  0  0  0  0  0  0
    4.6637   -0.4745   21.7936 C   0  0  0  0  0  0  0  0  0  0  0  0
    5.9891   -0.7615   20.9367 C   0  0  0  0  0  0  0  0  0  0  0  0
    7.0386    0.1679   19.7841 C   0  0  0  0  0  0  0  0  0  0  0  0
    8.1024    1.1401   19.7035 C   0  0  0  0  0  0  0  0  0  0  0  0
    8.5038    1.3800   18.3805 C   0  0  0  0  0  0  0  0  0  0  0  0
    8.0277    0.3958   17.6582 N   0  0  0  0  0  0  0  0  0  0  0  0
    6.9513    0.0317   18.4299 N   0  0  0  0  0  0  0  0  0  0  0  0
    5.0399   -1.0694   22.5095 O   0  0  0  0  0  0  0  0  0  0  0  0
    5.8152   -2.1662   27.5887 H   0  0  0  0  0  0  0  0  0  0  0  0
    5.8808   -0.3909   27.6223 H   0  0  0  0  0  0  0  0  0  0  0  0
    6.4506   -1.2946   26.2106 H   0  0  0  0  0  0  0  0  0  0  0  0
    2.3811   -1.6815   27.0258 H   0  0  0  0  0  0  0  0  0  0  0  0
    3.6126   -2.1385   28.1200 H   0  0  0  0  0  0  0  0  0  0  0  0
    2.7530   -0.4767   29.3654 H   0  0  0  0  0  0  0  0  0  0  0  0
    3.8871    0.5151   28.4938 H   0  0  0  0  0  0  0  0  0  0  0  0
    3.0499    2.4719   27.4565 H   0  0  0  0  0  0  0  0  0  0  0  0
    1.1524    3.8693   26.6712 H   0  0  0  0  0  0  0  0  0  0  0  0
    0.2933   -0.7851   28.2581 H   0  0  0  0  0  0  0  0  0  0  0  0
   -3.1625    2.2941   27.4809 H   0  0  0  0  0  0  0  0  0  0  0  0
   -2.8433    1.6345   25.8645 H   0  0  0  0  0  0  0  0  0  0  0  0
    3.1505    0.1210   25.2714 H   0  0  0  0  0  0  0  0  0  0  0  0
    4.5983    0.8356   25.9163 H   0  0  0  0  0  0  0  0  0  0  0  0
    4.8575   -2.2550   23.9444 H   0  0  0  0  0  0  0  0  0  0  0  0
    4.2652    0.5733   21.5603 H   0  0  0  0  0  0  0  0  0  0  0  0
    8.6595    1.6163   20.4883 H   0  0  0  0  0  0  0  0  0  0  0  0
    9.2247    2.0770   17.9728 H   0  0  0  0  0  0  0  0  0  0  0  0
    6.1591   -0.4008   17.9702 H   0  0  0  0  0  0  0  0  0  0  0  0
  1  2  1  0
  2  3  1  0
  3  4  1  0
  4  5  1  0
  5  6  2  0
  6  7  1  0
  7  8  2  0
  8  9  1  0
  9 10  2  0
  9 11  1  0
 11 12  1  0
 12 13  1  0
  2 14  1  0
 14 15  1  0
 15 16  2  0
 16 17  1  0
 17 18  2  0
 18 19  1  0
 19 20  2  0
 20 21  1  0
 21 22  2  0
 22 23  1  0
 18 24  1  0
 10  5  1  0
 24 15  1  0
 13  8  1  0
 23 19  1  0
  1 25  1  0
  1 26  1  0
  1 27  1  0
  3 28  1  0
  3 29  1  0
  4 30  1  0
  4 31  1  0
  6 32  1  0
  7 33  1  0
 10 34  1  0
 12 35  1  0
 12 36  1  0
 14 37  1  0
 14 38  1  0
 16 39  1  0
 17 40  1  0
 20 41  1  0
 21 42  1  0
 23 43  1  0
M  END
>  <Energy>  (1075) 
701.36834160823173

>  <compound_id>  (1075) 
17663

>  <target_id>  (1075) 
1

>  <reference_id>  (1075) 
13

>  <inspiration_ids>  (1075) 
[13, 122]

>  <energy_score>  (1075) 
616.3734599787434

>  <distance_score>  (1075) 
5.549404853228624

>  <path>  (1075) 
/opt/xchem-fragalysis-2/maxwin/BulkDock/SCRATCH/511014/C17663-P13/C17663-P13.minimised.mol

>  <scratch_subdir>  (1075) 
/opt/xchem-fragalysis-2/maxwin/BulkDock/SCRATCH/511014/C17663-P13

>  <fragmenstein_runtime>  (1075) 
9.637967109680176

>  <fragmenstein_outcome>  (1075) 
too moved

>  <fragmenstein_mode>  (1075) 
expansion

>  <fragmenstein_error>  (1075) 


$$$$
C17663-P122
     RDKit          3D

 43 46  0  0  0  0  0  0  0  0999 V2000
    5.6037   -1.3512   26.5255 C   0  0  0  0  0  0  0  0  0  0  0  0
    4.6970   -1.1056   25.4112 N   0  0  0  0  0  0  0  0  0  0  0  0
    3.3699   -0.7414   25.8832 C   0  0  0  0  0  0  0  0  0  0  0  0
    2.9505   -0.7732   27.3910 C   0  0  0  0  0  0  0  0  0  0  0  0
    1.8627    0.2521   27.6650 C   0  0  0  0  0  0  0  0  0  0  0  0
    2.2367    1.6150   27.7548 C   0  0  0  0  0  0  0  0  0  0  0  0
    1.2786    2.6269   27.7555 C   0  0  0  0  0  0  0  0  0  0  0  0
   -0.0386    2.2492   27.6515 C   0  0  0  0  0  0  0  0  0  0  0  0
   -0.4205    0.9280   27.6232 C   0  0  0  0  0  0  0  0  0  0  0  0
    0.5037   -0.0973   27.6674 C   0  0  0  0  0  0  0  0  0  0  0  0
   -1.7641    0.7880   27.4572 O   0  0  0  0  0  0  0  0  0  0  0  0
   -2.1721    2.1726   27.3727 C   0  0  0  0  0  0  0  0  0  0  0  0
   -1.0847    3.1023   27.5110 O   0  0  0  0  0  0  0  0  0  0  0  0
    4.7736   -2.0474   24.1689 C   0  0  0  0  0  0  0  0  0  0  0  0
    5.2281   -1.5838   22.4944 C   0  0  0  0  0  0  0  0  0  0  0  0
    4.9138   -0.3791   21.9605 C   0  0  0  0  0  0  0  0  0  0  0  0
    5.8908   -0.0040   21.1756 C   0  0  0  0  0  0  0  0  0  0  0  0
    6.9383   -0.7543   20.3878 C   0  0  0  0  0  0  0  0  0  0  0  0
    7.2926   -0.3263   18.7577 C   0  0  0  0  0  0  0  0  0  0  0  0
    8.0847    0.5198   17.8156 C   0  0  0  0  0  0  0  0  0  0  0  0
    8.1828   -0.0088   16.5367 C   0  0  0  0  0  0  0  0  0  0  0  0
    7.1366   -0.7880   16.3540 N   0  0  0  0  0  0  0  0  0  0  0  0
    6.4193   -0.7297   17.6489 N   0  0  0  0  0  0  0  0  0  0  0  0
    6.0148   -2.1461   21.1518 O   0  0  0  0  0  0  0  0  0  0  0  0
    6.6131   -1.6212   26.1989 H   0  0  0  0  0  0  0  0  0  0  0  0
    5.2355   -2.1054   27.2277 H   0  0  0  0  0  0  0  0  0  0  0  0
    5.7472   -0.4211   27.0899 H   0  0  0  0  0  0  0  0  0  0  0  0
    2.6789   -1.3879   25.3783 H   0  0  0  0  0  0  0  0  0  0  0  0
    3.2341    0.2791   25.5142 H   0  0  0  0  0  0  0  0  0  0  0  0
    3.7805   -0.5260   28.0606 H   0  0  0  0  0  0  0  0  0  0  0  0
    2.6179   -1.7809   27.6676 H   0  0  0  0  0  0  0  0  0  0  0  0
    3.2912    1.8874   27.7558 H   0  0  0  0  0  0  0  0  0  0  0  0
    1.5615    3.6730   27.7766 H   0  0  0  0  0  0  0  0  0  0  0  0
    0.1870   -1.1322   27.5968 H   0  0  0  0  0  0  0  0  0  0  0  0
   -2.8791    2.3664   28.1760 H   0  0  0  0  0  0  0  0  0  0  0  0
   -2.6672    2.3375   26.4089 H   0  0  0  0  0  0  0  0  0  0  0  0
    5.6757   -2.5795   24.3950 H   0  0  0  0  0  0  0  0  0  0  0  0
    3.8561   -2.6343   24.1133 H   0  0  0  0  0  0  0  0  0  0  0  0
    4.4538    0.5221   22.2869 H   0  0  0  0  0  0  0  0  0  0  0  0
    6.1648    0.9566   21.6400 H   0  0  0  0  0  0  0  0  0  0  0  0
    8.4932    1.5089   17.9695 H   0  0  0  0  0  0  0  0  0  0  0  0
    8.8198    0.2625   15.7032 H   0  0  0  0  0  0  0  0  0  0  0  0
    5.5197   -1.1768   17.7927 H   0  0  0  0  0  0  0  0  0  0  0  0
  1  2  1  0
  2  3  1  0
  3  4  1  0
  4  5  1  0
  5  6  2  0
  6  7  1  0
  7  8  2  0
  8  9  1  0
  9 10  2  0
  9 11  1  0
 11 12  1  0
 12 13  1  0
  2 14  1  0
 14 15  1  0
 15 16  2  0
 16 17  1  0
 17 18  2  0
 18 19  1  0
 19 20  2  0
 20 21  1  0
 21 22  2  0
 22 23  1  0
 18 24  1  0
 10  5  1  0
 24 15  1  0
 13  8  1  0
 23 19  1  0
  1 25  1  0
  1 26  1  0
  1 27  1  0
  3 28  1  0
  3 29  1  0
  4 30  1  0
  4 31  1  0
  6 32  1  0
  7 33  1  0
 10 34  1  0
 12 35  1  0
 12 36  1  0
 14 37  1  0
 14 38  1  0
 16 39  1  0
 17 40  1  0
 20 41  1  0
 21 42  1  0
 23 43  1  0
M  END
>  <Energy>  (1076) 
364.22574439245955

>  <compound_id>  (1076) 
17663

>  <target_id>  (1076) 
1

>  <reference_id>  (1076) 
122

>  <inspiration_ids>  (1076) 
[13, 122]

>  <energy_score>  (1076) 
279.2308627629823

>  <distance_score>  (1076) 
5.653910191300635

>  <path>  (1076) 
/opt/xchem-fragalysis-2/maxwin/BulkDock/SCRATCH/511014/C17663-P122/C17663-P122.minimised.mol

>  <scratch_subdir>  (1076) 
/opt/xchem-fragalysis-2/maxwin/BulkDock/SCRATCH/511014/C17663-P122

>  <fragmenstein_runtime>  (1076) 
9.768550872802734

>  <fragmenstein_outcome>  (1076) 
too moved

>  <fragmenstein_mode>  (1076) 
expansion

>  <fragmenstein_error>  (1076) 


$$$$
C17644-P13
     RDKit          3D

 37 39  0  0  0  0  0  0  0  0999 V2000
    6.6409   -6.1631   21.4224 O   0  0  0  0  0  0  0  0  0  0  0  0
    7.1324   -5.1864   21.9082 C   0  0  0  0  0  0  0  0  0  0  0  0
    6.5192   -4.7629   23.5389 N   0  0  0  0  0  0  0  0  0  0  0  0
    5.5674   -5.4615   24.4912 C   0  0  0  0  0  0  0  0  0  0  0  0
    5.0855   -4.7586   25.8518 C   0  0  0  0  0  0  0  0  0  0  0  0
    4.0663   -3.6727   25.8977 N   0  0  0  0  0  0  0  0  0  0  0  0
    3.7020   -3.3365   27.3114 C   0  0  0  0  0  0  0  0  0  0  0  0
    3.0920   -1.9572   27.5206 C   0  0  0  0  0  0  0  0  0  0  0  0
    3.8096   -0.7689   27.2714 C   0  0  0  0  0  0  0  0  0  0  0  0
    5.4569   -0.8040   26.7379 Cl  0  0  0  0  0  0  0  0  0  0  0  0
    3.2274    0.5079   27.4457 C   0  0  0  0  0  0  0  0  0  0  0  0
    1.9120    0.6416   27.8845 C   0  0  0  0  0  0  0  0  0  0  0  0
    1.2185   -0.5157   28.1457 C   0  0  0  0  0  0  0  0  0  0  0  0
    1.7865   -1.7700   27.9864 C   0  0  0  0  0  0  0  0  0  0  0  0
    0.8910   -2.7489   28.3104 O   0  0  0  0  0  0  0  0  0  0  0  0
   -0.3068   -1.9763   28.5636 C   0  0  0  0  0  0  0  0  0  0  0  0
   -0.0728   -0.5581   28.5717 O   0  0  0  0  0  0  0  0  0  0  0  0
    8.6760   -4.4960   20.6905 C   0  0  0  0  0  0  0  0  0  0  0  0
   10.4643   -4.4405   21.4132 C   0  0  0  0  0  0  0  0  0  0  0  0
   11.4474   -5.4144   21.5772 C   0  0  0  0  0  0  0  0  0  0  0  0
   10.6371   -6.3591   21.2613 N   0  0  0  0  0  0  0  0  0  0  0  0
    9.9462   -5.5793   20.2177 N   0  0  0  0  0  0  0  0  0  0  0  0
    6.9104   -3.9382   23.7875 H   0  0  0  0  0  0  0  0  0  0  0  0
    4.8824   -6.1900   24.0626 H   0  0  0  0  0  0  0  0  0  0  0  0
    6.2804   -6.1969   24.9032 H   0  0  0  0  0  0  0  0  0  0  0  0
    4.7059   -5.5798   26.4744 H   0  0  0  0  0  0  0  0  0  0  0  0
    5.9926   -4.3849   26.3448 H   0  0  0  0  0  0  0  0  0  0  0  0
    4.5233   -2.8491   25.4947 H   0  0  0  0  0  0  0  0  0  0  0  0
    3.0074   -4.1068   27.6661 H   0  0  0  0  0  0  0  0  0  0  0  0
    4.5870   -3.3969   27.9583 H   0  0  0  0  0  0  0  0  0  0  0  0
    3.8084    1.4023   27.2302 H   0  0  0  0  0  0  0  0  0  0  0  0
    1.4512    1.6142   28.0115 H   0  0  0  0  0  0  0  0  0  0  0  0
   -0.6991   -2.2685   29.5441 H   0  0  0  0  0  0  0  0  0  0  0  0
   -1.0620   -2.2105   27.8081 H   0  0  0  0  0  0  0  0  0  0  0  0
   10.7934   -3.4526   21.7832 H   0  0  0  0  0  0  0  0  0  0  0  0
   12.4251   -5.4792   22.0297 H   0  0  0  0  0  0  0  0  0  0  0  0
   10.4611   -5.2419   19.4060 H   0  0  0  0  0  0  0  0  0  0  0  0
  1  2  2  0
  2  3  1  0
  3  4  1  0
  4  5  1  0
  5  6  1  0
  6  7  1  0
  7  8  1  0
  8  9  2  0
  9 10  1  0
  9 11  1  0
 11 12  2  0
 12 13  1  0
 13 14  2  0
 14 15  1  0
 15 16  1  0
 16 17  1  0
  2 18  1  0
 18 19  2  0
 19 20  1  0
 20 21  2  0
 21 22  1  0
 14  8  1  0
 22 18  1  0
 17 13  1  0
  3 23  1  0
  4 24  1  0
  4 25  1  0
  5 26  1  0
  5 27  1  0
  6 28  1  0
  7 29  1  0
  7 30  1  0
 11 31  1  0
 12 32  1  0
 16 33  1  0
 16 34  1  0
 19 35  1  0
 20 36  1  0
 22 37  1  0
M  END
>  <Energy>  (1077) 
447.01488300884023

>  <compound_id>  (1077) 
17644

>  <target_id>  (1077) 
1

>  <reference_id>  (1077) 
13

>  <inspiration_ids>  (1077) 
[13, 122]

>  <energy_score>  (1077) 
416.8565274274804

>  <distance_score>  (1077) 
6.667954879213055

>  <path>  (1077) 
/opt/xchem-fragalysis-2/maxwin/BulkDock/SCRATCH/511014/C17644-P13/C17644-P13.minimised.mol

>  <scratch_subdir>  (1077) 
/opt/xchem-fragalysis-2/maxwin/BulkDock/SCRATCH/511014/C17644-P13

>  <fragmenstein_runtime>  (1077) 
6.52851939201355

>  <fragmenstein_outcome>  (1077) 
too moved

>  <fragmenstein_mode>  (1077) 
expansion

>  <fragmenstein_error>  (1077) 


$$$$
C17644-P122
     RDKit          3D

 37 39  0  0  0  0  0  0  0  0999 V2000
    8.5817    0.7144   27.6186 O   0  0  0  0  0  0  0  0  0  0  0  0
    8.2415   -0.2122   26.9771 C   0  0  0  0  0  0  0  0  0  0  0  0
    6.9240   -1.1002   27.0714 N   0  0  0  0  0  0  0  0  0  0  0  0
    5.6768   -0.9412   27.9562 C   0  0  0  0  0  0  0  0  0  0  0  0
    4.2136   -1.6371   27.6897 C   0  0  0  0  0  0  0  0  0  0  0  0
    3.0382   -1.1629   28.5111 N   0  0  0  0  0  0  0  0  0  0  0  0
    1.7648   -1.3650   27.7761 C   0  0  0  0  0  0  0  0  0  0  0  0
    0.5629   -0.7366   28.4449 C   0  0  0  0  0  0  0  0  0  0  0  0
    0.0427   -1.2733   29.6286 C   0  0  0  0  0  0  0  0  0  0  0  0
    0.7255   -2.6655   30.4026 Cl  0  0  0  0  0  0  0  0  0  0  0  0
   -1.0949   -0.7174   30.2391 C   0  0  0  0  0  0  0  0  0  0  0  0
   -1.7826    0.3432   29.6637 C   0  0  0  0  0  0  0  0  0  0  0  0
   -1.2972    0.8458   28.4930 C   0  0  0  0  0  0  0  0  0  0  0  0
   -0.1377    0.3627   27.9242 C   0  0  0  0  0  0  0  0  0  0  0  0
    0.1967    1.1460   26.8557 O   0  0  0  0  0  0  0  0  0  0  0  0
   -0.8812    2.1099   26.8171 C   0  0  0  0  0  0  0  0  0  0  0  0
   -1.8751    1.8664   27.8117 O   0  0  0  0  0  0  0  0  0  0  0  0
    9.3046   -0.5475   25.9075 C   0  0  0  0  0  0  0  0  0  0  0  0
   10.0101    0.3705   25.0837 C   0  0  0  0  0  0  0  0  0  0  0  0
   11.1501   -0.2728   24.5492 C   0  0  0  0  0  0  0  0  0  0  0  0
   11.2003   -1.5398   24.9649 N   0  0  0  0  0  0  0  0  0  0  0  0
   10.0566   -1.6984   25.7104 N   0  0  0  0  0  0  0  0  0  0  0  0
    6.9874   -1.8765   26.4152 H   0  0  0  0  0  0  0  0  0  0  0  0
    6.0042   -1.2419   28.9582 H   0  0  0  0  0  0  0  0  0  0  0  0
    5.5168    0.1429   27.9970 H   0  0  0  0  0  0  0  0  0  0  0  0
    4.0129   -1.4712   26.6240 H   0  0  0  0  0  0  0  0  0  0  0  0
    4.3271   -2.7118   27.8431 H   0  0  0  0  0  0  0  0  0  0  0  0
    3.1468   -0.1557   28.6336 H   0  0  0  0  0  0  0  0  0  0  0  0
    1.5854   -2.4353   27.6222 H   0  0  0  0  0  0  0  0  0  0  0  0
    1.8784   -0.9163   26.7895 H   0  0  0  0  0  0  0  0  0  0  0  0
   -1.4701   -1.1463   31.1661 H   0  0  0  0  0  0  0  0  0  0  0  0
   -2.6715    0.7513   30.1239 H   0  0  0  0  0  0  0  0  0  0  0  0
   -1.3518    2.0783   25.8288 H   0  0  0  0  0  0  0  0  0  0  0  0
   -0.4582    3.1098   26.9692 H   0  0  0  0  0  0  0  0  0  0  0  0
    9.7618    1.4197   24.9975 H   0  0  0  0  0  0  0  0  0  0  0  0
   11.9377    0.1185   23.9187 H   0  0  0  0  0  0  0  0  0  0  0  0
    9.8863   -2.6183   26.1036 H   0  0  0  0  0  0  0  0  0  0  0  0
  1  2  2  0
  2  3  1  0
  3  4  1  0
  4  5  1  0
  5  6  1  0
  6  7  1  0
  7  8  1  0
  8  9  2  0
  9 10  1  0
  9 11  1  0
 11 12  2  0
 12 13  1  0
 13 14  2  0
 14 15  1  0
 15 16  1  0
 16 17  1  0
  2 18  1  0
 18 19  2  0
 19 20  1  0
 20 21  2  0
 21 22  1  0
 14  8  1  0
 22 18  1  0
 17 13  1  0
  3 23  1  0
  4 24  1  0
  4 25  1  0
  5 26  1  0
  5 27  1  0
  6 28  1  0
  7 29  1  0
  7 30  1  0
 11 31  1  0
 12 32  1  0
 16 33  1  0
 16 34  1  0
 19 35  1  0
 20 36  1  0
 22 37  1  0
M  END
>  <Energy>  (1078) 
55.152286455296561

>  <compound_id>  (1078) 
17644

>  <target_id>  (1078) 
1

>  <reference_id>  (1078) 
122

>  <inspiration_ids>  (1078) 
[13, 122]

>  <energy_score>  (1078) 
33.07387096674046

>  <distance_score>  (1078) 
6.5720708446530764

>  <path>  (1078) 
/opt/xchem-fragalysis-2/maxwin/BulkDock/SCRATCH/511014/C17644-P122/C17644-P122.minimised.mol

>  <scratch_subdir>  (1078) 
/opt/xchem-fragalysis-2/maxwin/BulkDock/SCRATCH/511014/C17644-P122

>  <fragmenstein_runtime>  (1078) 
11.667476415634155

>  <fragmenstein_outcome>  (1078) 
too moved

>  <fragmenstein_mode>  (1078) 
expansion

>  <fragmenstein_error>  (1078) 


$$$$
C17667-P13
     RDKit          3D

 43 46  0  0  0  0  0  0  0  0999 V2000
    3.2790   -5.5206   28.5704 O   0  0  0  0  0  0  0  0  0  0  0  0
    3.4338   -4.3669   28.2562 C   0  0  0  0  0  0  0  0  0  0  0  0
    2.6525   -3.2571   29.0129 C   0  0  0  0  0  0  0  0  0  0  0  0
    1.4061   -2.9454   28.4060 O   0  0  0  0  0  0  0  0  0  0  0  0
    1.0481   -1.6289   28.2759 C   0  0  0  0  0  0  0  0  0  0  0  0
    1.9475   -0.5663   28.0664 C   0  0  0  0  0  0  0  0  0  0  0  0
    1.4798    0.7313   27.8140 C   0  0  0  0  0  0  0  0  0  0  0  0
    0.1183    0.9247   27.7433 C   0  0  0  0  0  0  0  0  0  0  0  0
   -0.7651   -0.1057   27.9482 C   0  0  0  0  0  0  0  0  0  0  0  0
   -0.3327   -1.3878   28.2252 C   0  0  0  0  0  0  0  0  0  0  0  0
   -2.0568    0.2907   27.8014 O   0  0  0  0  0  0  0  0  0  0  0  0
   -1.8823    1.6618   27.3887 C   0  0  0  0  0  0  0  0  0  0  0  0
   -0.5032    2.0906   27.4225 O   0  0  0  0  0  0  0  0  0  0  0  0
    4.2868   -3.7758   27.2575 N   0  0  0  0  0  0  0  0  0  0  0  0
    5.6251   -3.4197   27.8606 C   0  0  0  0  0  0  0  0  0  0  0  0
    6.3177   -4.5082   28.7050 C   0  0  0  0  0  0  0  0  0  0  0  0
    6.4624   -5.7789   27.8942 C   0  0  0  0  0  0  0  0  0  0  0  0
    6.4489   -5.3524   26.4375 C   0  0  0  0  0  0  0  0  0  0  0  0
    6.6307   -6.5219   25.5061 C   0  0  0  0  0  0  0  0  0  0  0  0
    5.8403   -7.1295   24.5559 C   0  0  0  0  0  0  0  0  0  0  0  0
    6.6324   -8.1471   23.9997 C   0  0  0  0  0  0  0  0  0  0  0  0
    7.8613   -8.1698   24.5203 N   0  0  0  0  0  0  0  0  0  0  0  0
    7.8059   -7.2389   25.4896 N   0  0  0  0  0  0  0  0  0  0  0  0
    5.1938   -4.4315   26.1854 C   0  0  0  0  0  0  0  0  0  0  0  0
    2.4319   -3.6590   30.0102 H   0  0  0  0  0  0  0  0  0  0  0  0
    3.3012   -2.3977   29.1922 H   0  0  0  0  0  0  0  0  0  0  0  0
    3.0193   -0.7284   28.0241 H   0  0  0  0  0  0  0  0  0  0  0  0
    2.1670    1.5484   27.6251 H   0  0  0  0  0  0  0  0  0  0  0  0
   -1.0482   -2.1971   28.3313 H   0  0  0  0  0  0  0  0  0  0  0  0
   -2.2609    1.7725   26.3654 H   0  0  0  0  0  0  0  0  0  0  0  0
   -2.4632    2.3100   28.0492 H   0  0  0  0  0  0  0  0  0  0  0  0
    6.3032   -2.8617   27.1894 H   0  0  0  0  0  0  0  0  0  0  0  0
    5.3818   -2.6339   28.5916 H   0  0  0  0  0  0  0  0  0  0  0  0
    5.7713   -4.7122   29.6327 H   0  0  0  0  0  0  0  0  0  0  0  0
    7.3059   -4.1370   29.0027 H   0  0  0  0  0  0  0  0  0  0  0  0
    7.3848   -6.3027   28.1701 H   0  0  0  0  0  0  0  0  0  0  0  0
    5.6379   -6.4709   28.1007 H   0  0  0  0  0  0  0  0  0  0  0  0
    7.3390   -4.7243   26.2898 H   0  0  0  0  0  0  0  0  0  0  0  0
    4.8207   -6.8919   24.2998 H   0  0  0  0  0  0  0  0  0  0  0  0
    6.3671   -8.8562   23.2252 H   0  0  0  0  0  0  0  0  0  0  0  0
    8.6214   -7.1078   26.0803 H   0  0  0  0  0  0  0  0  0  0  0  0
    4.4511   -5.0661   25.6849 H   0  0  0  0  0  0  0  0  0  0  0  0
    5.4197   -3.6607   25.4340 H   0  0  0  0  0  0  0  0  0  0  0  0
  1  2  2  0
  2  3  1  0
  3  4  1  0
  4  5  1  0
  5  6  2  0
  6  7  1  0
  7  8  2  0
  8  9  1  0
  9 10  2  0
  9 11  1  0
 11 12  1  0
 12 13  1  0
  2 14  1  0
 14 15  1  0
 15 16  1  0
 16 17  1  0
 17 18  1  0
 18 19  1  0
 19 20  2  0
 20 21  1  0
 21 22  2  0
 22 23  1  0
 18 24  1  0
 10  5  1  0
 24 14  1  0
 13  8  1  0
 23 19  1  0
  3 25  1  0
  3 26  1  0
  6 27  1  0
  7 28  1  0
 10 29  1  0
 12 30  1  0
 12 31  1  0
 15 32  1  0
 15 33  1  0
 16 34  1  0
 16 35  1  0
 17 36  1  0
 17 37  1  0
 18 38  1  0
 20 39  1  0
 21 40  1  0
 23 41  1  0
 24 42  1  0
 24 43  1  0
M  END
>  <Energy>  (1079) 
147.08036841692049

>  <compound_id>  (1079) 
17667

>  <target_id>  (1079) 
1

>  <reference_id>  (1079) 
13

>  <inspiration_ids>  (1079) 
[13, 122]

>  <energy_score>  (1079) 
36.46871649403772

>  <distance_score>  (1079) 
7.295784170638262

>  <path>  (1079) 
/opt/xchem-fragalysis-2/maxwin/BulkDock/SCRATCH/511014/C17667-P13/C17667-P13.minimised.mol

>  <scratch_subdir>  (1079) 
/opt/xchem-fragalysis-2/maxwin/BulkDock/SCRATCH/511014/C17667-P13

>  <fragmenstein_runtime>  (1079) 
12.818644523620605

>  <fragmenstein_outcome>  (1079) 
too moved

>  <fragmenstein_mode>  (1079) 
expansion

>  <fragmenstein_error>  (1079) 


$$$$
C17667-P122
     RDKit          3D

 43 46  0  0  0  0  0  0  0  0999 V2000
    3.0428    4.7096   19.9818 O   0  0  0  0  0  0  0  0  0  0  0  0
    3.4986    5.1781   20.9959 C   0  0  0  0  0  0  0  0  0  0  0  0
    2.6374    5.2179   22.3279 C   0  0  0  0  0  0  0  0  0  0  0  0
    1.9622    3.9742   22.6049 O   0  0  0  0  0  0  0  0  0  0  0  0
    1.2843    3.8751   23.7931 C   0  0  0  0  0  0  0  0  0  0  0  0
    1.9095    4.0076   25.0443 C   0  0  0  0  0  0  0  0  0  0  0  0
    1.1989    3.7477   26.2273 C   0  0  0  0  0  0  0  0  0  0  0  0
   -0.1163    3.3454   26.1198 C   0  0  0  0  0  0  0  0  0  0  0  0
   -0.7207    3.1915   24.8959 C   0  0  0  0  0  0  0  0  0  0  0  0
   -0.0500    3.4532   23.7183 C   0  0  0  0  0  0  0  0  0  0  0  0
   -1.9915    2.7153   25.0025 O   0  0  0  0  0  0  0  0  0  0  0  0
   -2.1790    2.7784   26.4362 C   0  0  0  0  0  0  0  0  0  0  0  0
   -0.9483    3.0322   27.1495 O   0  0  0  0  0  0  0  0  0  0  0  0
    4.8346    5.6788   21.2884 N   0  0  0  0  0  0  0  0  0  0  0  0
    4.9105    7.1548   20.9907 C   0  0  0  0  0  0  0  0  0  0  0  0
    4.4193    7.6016   19.5880 C   0  0  0  0  0  0  0  0  0  0  0  0
    5.0366    6.7666   18.4711 C   0  0  0  0  0  0  0  0  0  0  0  0
    6.3468    6.2220   18.9931 C   0  0  0  0  0  0  0  0  0  0  0  0
    7.0614    5.2691   18.0511 C   0  0  0  0  0  0  0  0  0  0  0  0
    6.6353    4.1602   17.3483 C   0  0  0  0  0  0  0  0  0  0  0  0
    7.7821    3.6332   16.7278 C   0  0  0  0  0  0  0  0  0  0  0  0
    8.8485    4.4040   16.9237 N   0  0  0  0  0  0  0  0  0  0  0  0
    8.3885    5.3971   17.7011 N   0  0  0  0  0  0  0  0  0  0  0  0
    6.1212    5.6656   20.4415 C   0  0  0  0  0  0  0  0  0  0  0  0
    3.2969    5.4791   23.1626 H   0  0  0  0  0  0  0  0  0  0  0  0
    1.8910    6.0108   22.2022 H   0  0  0  0  0  0  0  0  0  0  0  0
    2.9598    4.2748   25.1064 H   0  0  0  0  0  0  0  0  0  0  0  0
    1.6737    3.8422   27.1974 H   0  0  0  0  0  0  0  0  0  0  0  0
   -0.5270    3.3111   22.7545 H   0  0  0  0  0  0  0  0  0  0  0  0
   -2.8989    3.5727   26.6677 H   0  0  0  0  0  0  0  0  0  0  0  0
   -2.5859    1.8191   26.7738 H   0  0  0  0  0  0  0  0  0  0  0  0
    5.8455    7.6489   21.3086 H   0  0  0  0  0  0  0  0  0  0  0  0
    4.1826    7.5975   21.6892 H   0  0  0  0  0  0  0  0  0  0  0  0
    4.6836    8.6577   19.4541 H   0  0  0  0  0  0  0  0  0  0  0  0
    3.3262    7.5484   19.5218 H   0  0  0  0  0  0  0  0  0  0  0  0
    4.3601    5.9516   18.1911 H   0  0  0  0  0  0  0  0  0  0  0  0
    5.1784    7.3718   17.5682 H   0  0  0  0  0  0  0  0  0  0  0  0
    7.0193    7.0874   19.1068 H   0  0  0  0  0  0  0  0  0  0  0  0
    5.6338    3.7556   17.3275 H   0  0  0  0  0  0  0  0  0  0  0  0
    7.8800    2.7307   16.1412 H   0  0  0  0  0  0  0  0  0  0  0  0
    9.0459    6.1221   17.9705 H   0  0  0  0  0  0  0  0  0  0  0  0
    6.2975    4.5895   20.3774 H   0  0  0  0  0  0  0  0  0  0  0  0
    6.9609    5.9718   21.0916 H   0  0  0  0  0  0  0  0  0  0  0  0
  1  2  2  0
  2  3  1  0
  3  4  1  0
  4  5  1  0
  5  6  2  0
  6  7  1  0
  7  8  2  0
  8  9  1  0
  9 10  2  0
  9 11  1  0
 11 12  1  0
 12 13  1  0
  2 14  1  0
 14 15  1  0
 15 16  1  0
 16 17  1  0
 17 18  1  0
 18 19  1  0
 19 20  2  0
 20 21  1  0
 21 22  2  0
 22 23  1  0
 18 24  1  0
 10  5  1  0
 24 14  1  0
 13  8  1  0
 23 19  1  0
  3 25  1  0
  3 26  1  0
  6 27  1  0
  7 28  1  0
 10 29  1  0
 12 30  1  0
 12 31  1  0
 15 32  1  0
 15 33  1  0
 16 34  1  0
 16 35  1  0
 17 36  1  0
 17 37  1  0
 18 38  1  0
 20 39  1  0
 21 40  1  0
 23 41  1  0
 24 42  1  0
 24 43  1  0
M  END
>  <Energy>  (1080) 
145.49276726912143

>  <compound_id>  (1080) 
17667

>  <target_id>  (1080) 
1

>  <reference_id>  (1080) 
122

>  <inspiration_ids>  (1080) 
[13, 122]

>  <energy_score>  (1080) 
34.88111534624176

>  <distance_score>  (1080) 
8.898504180023245

>  <path>  (1080) 
/opt/xchem-fragalysis-2/maxwin/BulkDock/SCRATCH/511014/C17667-P122/C17667-P122.minimised.mol

>  <scratch_subdir>  (1080) 
/opt/xchem-fragalysis-2/maxwin/BulkDock/SCRATCH/511014/C17667-P122

>  <fragmenstein_runtime>  (1080) 
15.269195318222046

>  <fragmenstein_outcome>  (1080) 
too moved

>  <fragmenstein_mode>  (1080) 
expansion

>  <fragmenstein_error>  (1080) 


$$$$
C17638-P13
     RDKit          3D

 43 46  0  0  0  0  0  0  0  0999 V2000
    4.5913   -2.5611   28.5755 C   0  0  0  0  0  0  0  0  0  0  0  0
    3.6843   -2.3902   27.3495 C   0  0  0  0  0  0  0  0  0  0  0  0
    4.4478   -2.4943   26.0671 N   0  0  0  0  0  0  0  0  0  0  0  0
    4.9505   -3.8476   25.7762 C   0  0  0  0  0  0  0  0  0  0  0  0
    5.7287   -4.0609   24.4820 C   0  0  0  0  0  0  0  0  0  0  0  0
    5.9791   -3.1051   23.2733 C   0  0  0  0  0  0  0  0  0  0  0  0
    6.9093   -3.2129   21.7199 C   0  0  0  0  0  0  0  0  0  0  0  0
    7.6390   -4.4016   21.1940 C   0  0  0  0  0  0  0  0  0  0  0  0
    9.6487   -4.8720   20.9856 C   0  0  0  0  0  0  0  0  0  0  0  0
   10.9627   -4.1919   21.8083 C   0  0  0  0  0  0  0  0  0  0  0  0
   11.9998   -5.1155   21.9408 C   0  0  0  0  0  0  0  0  0  0  0  0
   11.5055   -6.2215   21.4260 N   0  0  0  0  0  0  0  0  0  0  0  0
   10.6245   -5.6667   20.5392 N   0  0  0  0  0  0  0  0  0  0  0  0
    6.8413   -5.3419   22.5956 C   0  0  0  0  0  0  0  0  0  0  0  0
    6.1432   -5.2871   24.0499 C   0  0  0  0  0  0  0  0  0  0  0  0
    2.9318   -1.0624   27.4834 C   0  0  0  0  0  0  0  0  0  0  0  0
    3.5494    0.1720   27.2038 C   0  0  0  0  0  0  0  0  0  0  0  0
    2.8547    1.3935   27.3268 C   0  0  0  0  0  0  0  0  0  0  0  0
    1.5209    1.4190   27.7305 C   0  0  0  0  0  0  0  0  0  0  0  0
    0.9208    0.2118   28.0044 C   0  0  0  0  0  0  0  0  0  0  0  0
    1.6015   -0.9883   27.9023 C   0  0  0  0  0  0  0  0  0  0  0  0
    0.7946   -2.0375   28.2351 O   0  0  0  0  0  0  0  0  0  0  0  0
   -0.4761   -1.3718   28.4235 C   0  0  0  0  0  0  0  0  0  0  0  0
   -0.3762    0.0621   28.3880 O   0  0  0  0  0  0  0  0  0  0  0  0
    5.4072   -1.8290   28.5804 H   0  0  0  0  0  0  0  0  0  0  0  0
    4.0235   -2.4265   29.5038 H   0  0  0  0  0  0  0  0  0  0  0  0
    5.0344   -3.5608   28.6148 H   0  0  0  0  0  0  0  0  0  0  0  0
    2.9402   -3.1962   27.3553 H   0  0  0  0  0  0  0  0  0  0  0  0
    5.2573   -1.8750   26.1062 H   0  0  0  0  0  0  0  0  0  0  0  0
    5.6184   -4.1715   26.5817 H   0  0  0  0  0  0  0  0  0  0  0  0
    4.0945   -4.5327   25.7566 H   0  0  0  0  0  0  0  0  0  0  0  0
    5.2981   -2.2224   23.3744 H   0  0  0  0  0  0  0  0  0  0  0  0
    6.1245   -2.7779   21.0082 H   0  0  0  0  0  0  0  0  0  0  0  0
   10.9308   -3.2798   22.3839 H   0  0  0  0  0  0  0  0  0  0  0  0
   12.9247   -5.0891   22.4996 H   0  0  0  0  0  0  0  0  0  0  0  0
   11.0586   -5.3215   19.6894 H   0  0  0  0  0  0  0  0  0  0  0  0
    6.5563   -6.3820   22.2913 H   0  0  0  0  0  0  0  0  0  0  0  0
    5.8861   -6.2155   24.5452 H   0  0  0  0  0  0  0  0  0  0  0  0
    4.5850    0.2013   26.8710 H   0  0  0  0  0  0  0  0  0  0  0  0
    3.3651    2.3248   27.0912 H   0  0  0  0  0  0  0  0  0  0  0  0
    0.9727    2.3502   27.8166 H   0  0  0  0  0  0  0  0  0  0  0  0
   -0.8738   -1.6671   29.4011 H   0  0  0  0  0  0  0  0  0  0  0  0
   -1.1801   -1.7013   27.6529 H   0  0  0  0  0  0  0  0  0  0  0  0
  1  2  1  0
  2  3  1  0
  3  4  1  0
  4  5  1  0
  5  6  2  0
  6  7  1  0
  7  8  2  0
  8  9  1  0
  9 10  2  0
 10 11  1  0
 11 12  2  0
 12 13  1  0
  8 14  1  0
 14 15  2  0
  2 16  1  0
 16 17  2  0
 17 18  1  0
 18 19  2  0
 19 20  1  0
 20 21  2  0
 21 22  1  0
 22 23  1  0
 23 24  1  0
 15  5  1  0
 21 16  1  0
 13  9  1  0
 24 20  1  0
  1 25  1  0
  1 26  1  0
  1 27  1  0
  2 28  1  0
  3 29  1  0
  4 30  1  0
  4 31  1  0
  6 32  1  0
  7 33  1  0
 10 34  1  0
 11 35  1  0
 13 36  1  0
 14 37  1  0
 15 38  1  0
 17 39  1  0
 18 40  1  0
 19 41  1  0
 23 42  1  0
 23 43  1  0
M  END
>  <Energy>  (1081) 
464.10272574928763

>  <compound_id>  (1081) 
17638

>  <target_id>  (1081) 
1

>  <reference_id>  (1081) 
13

>  <inspiration_ids>  (1081) 
[13, 122]

>  <energy_score>  (1081) 
377.0906689301118

>  <distance_score>  (1081) 
6.368416158839622

>  <path>  (1081) 
/opt/xchem-fragalysis-2/maxwin/BulkDock/SCRATCH/511014/C17638-P13/C17638-P13.minimised.mol

>  <scratch_subdir>  (1081) 
/opt/xchem-fragalysis-2/maxwin/BulkDock/SCRATCH/511014/C17638-P13

>  <fragmenstein_runtime>  (1081) 
7.090420484542847

>  <fragmenstein_outcome>  (1081) 
too moved

>  <fragmenstein_mode>  (1081) 
expansion

>  <fragmenstein_error>  (1081) 


$$$$
C17638-P122
     RDKit          3D

 43 46  0  0  0  0  0  0  0  0999 V2000
    4.1322   -1.2856   27.9500 C   0  0  0  0  0  0  0  0  0  0  0  0
    3.2345   -0.9307   26.7511 C   0  0  0  0  0  0  0  0  0  0  0  0
    4.0202   -0.6905   25.4883 N   0  0  0  0  0  0  0  0  0  0  0  0
    4.7926   -1.8984   25.1168 C   0  0  0  0  0  0  0  0  0  0  0  0
    5.6076   -2.2693   23.8346 C   0  0  0  0  0  0  0  0  0  0  0  0
    6.7032   -3.5291   23.8928 C   0  0  0  0  0  0  0  0  0  0  0  0
    7.5677   -4.1947   22.7199 C   0  0  0  0  0  0  0  0  0  0  0  0
    8.3404   -3.5364   21.2738 C   0  0  0  0  0  0  0  0  0  0  0  0
   10.5913   -3.3506   21.2301 C   0  0  0  0  0  0  0  0  0  0  0  0
   11.7544   -4.5053   20.8486 C   0  0  0  0  0  0  0  0  0  0  0  0
   13.0552   -4.2235   21.2123 C   0  0  0  0  0  0  0  0  0  0  0  0
   13.0039   -3.6012   22.3553 N   0  0  0  0  0  0  0  0  0  0  0  0
   11.6679   -3.4604   22.5921 N   0  0  0  0  0  0  0  0  0  0  0  0
    6.5292   -2.8853   21.1092 C   0  0  0  0  0  0  0  0  0  0  0  0
    5.4872   -2.0961   22.3707 C   0  0  0  0  0  0  0  0  0  0  0  0
    2.3762    0.2593   27.1794 C   0  0  0  0  0  0  0  0  0  0  0  0
    2.8508    1.5785   27.0997 C   0  0  0  0  0  0  0  0  0  0  0  0
    2.0353    2.6757   27.4389 C   0  0  0  0  0  0  0  0  0  0  0  0
    0.7261    2.4825   27.8804 C   0  0  0  0  0  0  0  0  0  0  0  0
    0.2809    1.1858   27.9966 C   0  0  0  0  0  0  0  0  0  0  0  0
    1.0826    0.1070   27.6792 C   0  0  0  0  0  0  0  0  0  0  0  0
    0.4300   -1.0699   27.8913 O   0  0  0  0  0  0  0  0  0  0  0  0
   -0.8640   -0.6104   28.3263 C   0  0  0  0  0  0  0  0  0  0  0  0
   -0.9626    0.8219   28.4136 O   0  0  0  0  0  0  0  0  0  0  0  0
    3.5471   -1.3606   28.8745 H   0  0  0  0  0  0  0  0  0  0  0  0
    4.6265   -2.2522   27.8165 H   0  0  0  0  0  0  0  0  0  0  0  0
    4.9055   -0.5254   28.1113 H   0  0  0  0  0  0  0  0  0  0  0  0
    2.5651   -1.7782   26.5721 H   0  0  0  0  0  0  0  0  0  0  0  0
    3.3990   -0.4967   24.6979 H   0  0  0  0  0  0  0  0  0  0  0  0
    4.1060   -2.7400   25.2520 H   0  0  0  0  0  0  0  0  0  0  0  0
    5.5826   -1.8237   25.8670 H   0  0  0  0  0  0  0  0  0  0  0  0
    7.3016   -3.4009   24.8168 H   0  0  0  0  0  0  0  0  0  0  0  0
    7.8037   -5.2192   23.0320 H   0  0  0  0  0  0  0  0  0  0  0  0
   11.5376   -5.3271   20.1809 H   0  0  0  0  0  0  0  0  0  0  0  0
   13.9936   -4.6094   20.8422 H   0  0  0  0  0  0  0  0  0  0  0  0
   11.4417   -2.9405   23.4253 H   0  0  0  0  0  0  0  0  0  0  0  0
    5.7567   -3.2168   20.3606 H   0  0  0  0  0  0  0  0  0  0  0  0
    5.0553   -1.1504   22.0506 H   0  0  0  0  0  0  0  0  0  0  0  0
    3.8684    1.7572   26.7597 H   0  0  0  0  0  0  0  0  0  0  0  0
    2.4313    3.6847   27.3478 H   0  0  0  0  0  0  0  0  0  0  0  0
    0.0865    3.3215   28.1310 H   0  0  0  0  0  0  0  0  0  0  0  0
   -1.6287   -0.9730   27.6313 H   0  0  0  0  0  0  0  0  0  0  0  0
   -1.0688   -1.0350   29.3159 H   0  0  0  0  0  0  0  0  0  0  0  0
  1  2  1  0
  2  3  1  0
  3  4  1  0
  4  5  1  0
  5  6  2  0
  6  7  1  0
  7  8  2  0
  8  9  1  0
  9 10  2  0
 10 11  1  0
 11 12  2  0
 12 13  1  0
  8 14  1  0
 14 15  2  0
  2 16  1  0
 16 17  2  0
 17 18  1  0
 18 19  2  0
 19 20  1  0
 20 21  2  0
 21 22  1  0
 22 23  1  0
 23 24  1  0
 15  5  1  0
 21 16  1  0
 13  9  1  0
 24 20  1  0
  1 25  1  0
  1 26  1  0
  1 27  1  0
  2 28  1  0
  3 29  1  0
  4 30  1  0
  4 31  1  0
  6 32  1  0
  7 33  1  0
 10 34  1  0
 11 35  1  0
 13 36  1  0
 14 37  1  0
 15 38  1  0
 17 39  1  0
 18 40  1  0
 19 41  1  0
 23 42  1  0
 23 43  1  0
M  END
>  <Energy>  (1082) 
790.83826887362579

>  <compound_id>  (1082) 
17638

>  <target_id>  (1082) 
1

>  <reference_id>  (1082) 
122

>  <inspiration_ids>  (1082) 
[13, 122]

>  <energy_score>  (1082) 
703.826212054448

>  <distance_score>  (1082) 
6.325893565872053

>  <path>  (1082) 
/opt/xchem-fragalysis-2/maxwin/BulkDock/SCRATCH/511014/C17638-P122/C17638-P122.minimised.mol

>  <scratch_subdir>  (1082) 
/opt/xchem-fragalysis-2/maxwin/BulkDock/SCRATCH/511014/C17638-P122

>  <fragmenstein_runtime>  (1082) 
9.97060513496399

>  <fragmenstein_outcome>  (1082) 
too moved

>  <fragmenstein_mode>  (1082) 
expansion

>  <fragmenstein_error>  (1082) 


$$$$
C17653-P13
     RDKit          3D

 35 37  0  0  0  0  0  0  0  0999 V2000
    5.0920    1.5240   26.5697 C   0  0  0  0  0  0  0  0  0  0  0  0
    3.8496    2.2919   26.2068 C   0  0  0  0  0  0  0  0  0  0  0  0
    2.8953    2.3308   27.2727 C   0  0  0  0  0  0  0  0  0  0  0  0
    1.7286    3.0423   27.1379 C   0  0  0  0  0  0  0  0  0  0  0  0
    1.5014    3.7870   26.0224 C   0  0  0  0  0  0  0  0  0  0  0  0
    2.3920    3.7942   24.9620 C   0  0  0  0  0  0  0  0  0  0  0  0
    3.5757    2.9406   24.9590 C   0  0  0  0  0  0  0  0  0  0  0  0
    3.9124    2.3454   23.5174 N   0  0  0  0  0  0  0  0  0  0  0  0
    4.3806    1.4988   23.0078 C   0  0  0  0  0  0  0  0  0  0  0  0
    4.7566    0.5076   24.2420 O   0  0  0  0  0  0  0  0  0  0  0  0
    4.6711    0.8692   21.2147 C   0  0  0  0  0  0  0  0  0  0  0  0
    6.3904    0.4713   20.1059 C   0  0  0  0  0  0  0  0  0  0  0  0
    7.6120    1.4073   19.3480 C   0  0  0  0  0  0  0  0  0  0  0  0
    8.0673    2.7155   19.2931 C   0  0  0  0  0  0  0  0  0  0  0  0
    8.9351    2.7819   18.1801 C   0  0  0  0  0  0  0  0  0  0  0  0
    9.0438    1.6120   17.5514 N   0  0  0  0  0  0  0  0  0  0  0  0
    8.0888    0.8995   18.1434 N   0  0  0  0  0  0  0  0  0  0  0  0
    0.2891    4.4045   26.0478 O   0  0  0  0  0  0  0  0  0  0  0  0
   -0.2251    3.9508   27.3214 C   0  0  0  0  0  0  0  0  0  0  0  0
    0.7012    3.0936   28.0248 O   0  0  0  0  0  0  0  0  0  0  0  0
    4.9248    0.4437   26.5447 H   0  0  0  0  0  0  0  0  0  0  0  0
    5.9390    1.8121   25.9466 H   0  0  0  0  0  0  0  0  0  0  0  0
    5.4004    1.7807   27.5915 H   0  0  0  0  0  0  0  0  0  0  0  0
    3.0753    1.7782   28.1918 H   0  0  0  0  0  0  0  0  0  0  0  0
    2.0615    4.3195   24.0640 H   0  0  0  0  0  0  0  0  0  0  0  0
    3.5219    3.2565   23.5693 H   0  0  0  0  0  0  0  0  0  0  0  0
    4.5683   -0.1953   21.5648 H   0  0  0  0  0  0  0  0  0  0  0  0
    3.6424    1.1511   21.0356 H   0  0  0  0  0  0  0  0  0  0  0  0
    6.0848    0.4630   19.0459 H   0  0  0  0  0  0  0  0  0  0  0  0
    6.8436   -0.5268   20.2717 H   0  0  0  0  0  0  0  0  0  0  0  0
    7.7674    3.5688   19.8797 H   0  0  0  0  0  0  0  0  0  0  0  0
    9.4779    3.6402   17.8066 H   0  0  0  0  0  0  0  0  0  0  0  0
    7.5966    0.2290   17.5697 H   0  0  0  0  0  0  0  0  0  0  0  0
   -0.4396    4.8256   27.9456 H   0  0  0  0  0  0  0  0  0  0  0  0
   -1.1564    3.3988   27.1494 H   0  0  0  0  0  0  0  0  0  0  0  0
  1  2  1  0
  2  3  2  0
  3  4  1  0
  4  5  2  0
  5  6  1  0
  6  7  2  0
  7  8  1  0
  8  9  1  0
  9 10  2  0
  9 11  1  0
 11 12  1  0
 12 13  1  0
 13 14  2  0
 14 15  1  0
 15 16  2  0
 16 17  1  0
  5 18  1  0
 18 19  1  0
 19 20  1  0
  7  2  1  0
 17 13  1  0
 20  4  1  0
  1 21  1  0
  1 22  1  0
  1 23  1  0
  3 24  1  0
  6 25  1  0
  8 26  1  0
 11 27  1  0
 11 28  1  0
 12 29  1  0
 12 30  1  0
 14 31  1  0
 15 32  1  0
 17 33  1  0
 19 34  1  0
 19 35  1  0
M  END
>  <Energy>  (1083) 
471.9219614817294

>  <compound_id>  (1083) 
17653

>  <target_id>  (1083) 
1

>  <reference_id>  (1083) 
13

>  <inspiration_ids>  (1083) 
[13, 122]

>  <energy_score>  (1083) 
422.5638330602507

>  <distance_score>  (1083) 
5.8879791545595666

>  <path>  (1083) 
/opt/xchem-fragalysis-2/maxwin/BulkDock/SCRATCH/511014/C17653-P13/C17653-P13.minimised.mol

>  <scratch_subdir>  (1083) 
/opt/xchem-fragalysis-2/maxwin/BulkDock/SCRATCH/511014/C17653-P13

>  <fragmenstein_runtime>  (1083) 
6.756750822067261

>  <fragmenstein_outcome>  (1083) 
too moved

>  <fragmenstein_mode>  (1083) 
expansion

>  <fragmenstein_error>  (1083) 


$$$$
C17653-P122
     RDKit          3D

 35 37  0  0  0  0  0  0  0  0999 V2000
    5.7001   -1.6218   26.4534 C   0  0  0  0  0  0  0  0  0  0  0  0
    4.3831   -2.2984   25.6182 C   0  0  0  0  0  0  0  0  0  0  0  0
    3.3935   -2.4029   26.7209 C   0  0  0  0  0  0  0  0  0  0  0  0
    2.7235   -1.2776   27.0498 C   0  0  0  0  0  0  0  0  0  0  0  0
    3.0016   -0.2365   26.2626 C   0  0  0  0  0  0  0  0  0  0  0  0
    3.6903   -0.4473   25.0303 C   0  0  0  0  0  0  0  0  0  0  0  0
    4.1914   -1.6719   24.3962 C   0  0  0  0  0  0  0  0  0  0  0  0
    5.1818   -1.6586   22.9233 N   0  0  0  0  0  0  0  0  0  0  0  0
    5.4666   -0.3888   21.7349 C   0  0  0  0  0  0  0  0  0  0  0  0
    4.8904    0.6377   21.7724 O   0  0  0  0  0  0  0  0  0  0  0  0
    6.8834   -0.3205   20.2789 C   0  0  0  0  0  0  0  0  0  0  0  0
    7.1546   -0.2614   18.7071 C   0  0  0  0  0  0  0  0  0  0  0  0
    8.1510    0.3941   17.4695 C   0  0  0  0  0  0  0  0  0  0  0  0
    8.6264    1.6607   17.1333 C   0  0  0  0  0  0  0  0  0  0  0  0
    9.5816    1.4458   16.1232 C   0  0  0  0  0  0  0  0  0  0  0  0
    9.5855    0.1720   15.7360 N   0  0  0  0  0  0  0  0  0  0  0  0
    8.4616   -0.2950   16.2979 N   0  0  0  0  0  0  0  0  0  0  0  0
    2.5160    0.9380   26.7562 O   0  0  0  0  0  0  0  0  0  0  0  0
    1.7771    0.4417   27.8948 C   0  0  0  0  0  0  0  0  0  0  0  0
    1.9949   -0.9658   28.1380 O   0  0  0  0  0  0  0  0  0  0  0  0
    5.5579   -0.5569   26.6606 H   0  0  0  0  0  0  0  0  0  0  0  0
    5.8167   -2.1218   27.4249 H   0  0  0  0  0  0  0  0  0  0  0  0
    6.6168   -1.7454   25.8753 H   0  0  0  0  0  0  0  0  0  0  0  0
    3.5407   -3.0950   27.5368 H   0  0  0  0  0  0  0  0  0  0  0  0
    3.8261    0.4940   24.5641 H   0  0  0  0  0  0  0  0  0  0  0  0
    5.6960   -2.4506   22.6664 H   0  0  0  0  0  0  0  0  0  0  0  0
    7.4213   -1.1638   20.6133 H   0  0  0  0  0  0  0  0  0  0  0  0
    7.4200    0.6364   20.4575 H   0  0  0  0  0  0  0  0  0  0  0  0
    8.0282   -0.8594   18.9318 H   0  0  0  0  0  0  0  0  0  0  0  0
    6.3558   -0.7673   18.1564 H   0  0  0  0  0  0  0  0  0  0  0  0
    8.3754    2.5972   17.6038 H   0  0  0  0  0  0  0  0  0  0  0  0
   10.2654    2.1495   15.6669 H   0  0  0  0  0  0  0  0  0  0  0  0
    8.0430   -1.1281   15.8952 H   0  0  0  0  0  0  0  0  0  0  0  0
    2.0889    1.0018   28.7835 H   0  0  0  0  0  0  0  0  0  0  0  0
    0.7068    0.6123   27.7261 H   0  0  0  0  0  0  0  0  0  0  0  0
  1  2  1  0
  2  3  2  0
  3  4  1  0
  4  5  2  0
  5  6  1  0
  6  7  2  0
  7  8  1  0
  8  9  1  0
  9 10  2  0
  9 11  1  0
 11 12  1  0
 12 13  1  0
 13 14  2  0
 14 15  1  0
 15 16  2  0
 16 17  1  0
  5 18  1  0
 18 19  1  0
 19 20  1  0
  7  2  1  0
 17 13  1  0
 20  4  1  0
  1 21  1  0
  1 22  1  0
  1 23  1  0
  3 24  1  0
  6 25  1  0
  8 26  1  0
 11 27  1  0
 11 28  1  0
 12 29  1  0
 12 30  1  0
 14 31  1  0
 15 32  1  0
 17 33  1  0
 19 34  1  0
 19 35  1  0
M  END
>  <Energy>  (1084) 
379.54486426444822

>  <compound_id>  (1084) 
17653

>  <target_id>  (1084) 
1

>  <reference_id>  (1084) 
122

>  <inspiration_ids>  (1084) 
[13, 122]

>  <energy_score>  (1084) 
330.18673584298085

>  <distance_score>  (1084) 
5.48769280241

>  <path>  (1084) 
/opt/xchem-fragalysis-2/maxwin/BulkDock/SCRATCH/511014/C17653-P122/C17653-P122.minimised.mol

>  <scratch_subdir>  (1084) 
/opt/xchem-fragalysis-2/maxwin/BulkDock/SCRATCH/511014/C17653-P122

>  <fragmenstein_runtime>  (1084) 
5.9684813022613525

>  <fragmenstein_outcome>  (1084) 
too moved

>  <fragmenstein_mode>  (1084) 
expansion

>  <fragmenstein_error>  (1084) 


$$$$
C17675-P13
     RDKit          3D

 45 46  0  0  0  0  0  0  0  0999 V2000
   -1.8883   -0.9624   31.0194 C   0  0  0  0  0  0  0  0  0  0  0  0
   -0.9099   -1.2871   29.9086 C   0  0  0  0  0  0  0  0  0  0  0  0
    0.0982   -2.7009   30.3278 S   0  0  0  0  0  0  0  0  0  0  0  0
    0.9316   -2.3647   31.4607 O   0  0  0  0  0  0  0  0  0  0  0  0
   -0.7492   -3.8724   30.3449 O   0  0  0  0  0  0  0  0  0  0  0  0
    1.0789   -2.8136   28.9628 N   0  0  0  0  0  0  0  0  0  0  0  0
    2.4654   -2.3414   29.1250 C   0  0  0  0  0  0  0  0  0  0  0  0
    3.1522   -2.2083   27.8038 C   0  0  0  0  0  0  0  0  0  0  0  0
    3.5438   -1.0727   27.1239 C   0  0  0  0  0  0  0  0  0  0  0  0
    4.1625   -1.5293   25.9780 N   0  0  0  0  0  0  0  0  0  0  0  0
    4.6796   -0.7459   24.8166 C   0  0  0  0  0  0  0  0  0  0  0  0
    4.2002    0.7145   24.9290 C   0  0  0  0  0  0  0  0  0  0  0  0
    4.6622   -1.5788   23.2178 C   0  0  0  0  0  0  0  0  0  0  0  0
    5.0184   -0.6499   21.6883 N   0  0  0  0  0  0  0  0  0  0  0  0
    6.5210   -0.6593   20.5708 C   0  0  0  0  0  0  0  0  0  0  0  0
    7.4204   -1.3953   20.7090 O   0  0  0  0  0  0  0  0  0  0  0  0
    6.8832    0.4542   19.3341 C   0  0  0  0  0  0  0  0  0  0  0  0
    8.0258    0.6118   18.2741 C   0  0  0  0  0  0  0  0  0  0  0  0
    8.8837    1.6996   18.0844 C   0  0  0  0  0  0  0  0  0  0  0  0
    9.4804    1.5342   16.8168 C   0  0  0  0  0  0  0  0  0  0  0  0
    9.0316    0.4326   16.2259 N   0  0  0  0  0  0  0  0  0  0  0  0
    7.9361    0.1869   16.9513 N   0  0  0  0  0  0  0  0  0  0  0  0
    4.2272   -2.8764   26.0077 N   0  0  0  0  0  0  0  0  0  0  0  0
    3.5772   -3.3004   27.0903 N   0  0  0  0  0  0  0  0  0  0  0  0
   -1.3632   -0.6833   31.9383 H   0  0  0  0  0  0  0  0  0  0  0  0
   -2.5281   -1.8207   31.2482 H   0  0  0  0  0  0  0  0  0  0  0  0
   -2.5284   -0.1290   30.7227 H   0  0  0  0  0  0  0  0  0  0  0  0
   -0.2404   -0.4404   29.7317 H   0  0  0  0  0  0  0  0  0  0  0  0
   -1.4466   -1.5279   28.9859 H   0  0  0  0  0  0  0  0  0  0  0  0
    0.9801   -3.7180   28.4982 H   0  0  0  0  0  0  0  0  0  0  0  0
    2.4754   -1.3654   29.6231 H   0  0  0  0  0  0  0  0  0  0  0  0
    3.0218   -3.0572   29.7400 H   0  0  0  0  0  0  0  0  0  0  0  0
    3.4233   -0.0250   27.3522 H   0  0  0  0  0  0  0  0  0  0  0  0
    5.7142   -0.6796   25.1654 H   0  0  0  0  0  0  0  0  0  0  0  0
    4.7052    1.2106   25.7685 H   0  0  0  0  0  0  0  0  0  0  0  0
    4.4062    1.3253   24.0524 H   0  0  0  0  0  0  0  0  0  0  0  0
    3.1348    0.7846   25.1393 H   0  0  0  0  0  0  0  0  0  0  0  0
    3.6455   -1.9654   23.1712 H   0  0  0  0  0  0  0  0  0  0  0  0
    5.3912   -2.3743   23.3384 H   0  0  0  0  0  0  0  0  0  0  0  0
    4.4024    0.1337   21.4321 H   0  0  0  0  0  0  0  0  0  0  0  0
    7.2248    1.3388   19.8790 H   0  0  0  0  0  0  0  0  0  0  0  0
    6.0374    0.5464   18.7638 H   0  0  0  0  0  0  0  0  0  0  0  0
    9.0407    2.5244   18.7678 H   0  0  0  0  0  0  0  0  0  0  0  0
   10.2168    2.1500   16.3183 H   0  0  0  0  0  0  0  0  0  0  0  0
    7.1325   -0.2372   16.4971 H   0  0  0  0  0  0  0  0  0  0  0  0
  1  2  1  0
  2  3  1  0
  3  4  2  0
  3  5  2  0
  3  6  1  0
  6  7  1  0
  7  8  1  0
  8  9  2  0
  9 10  1  0
 10 11  1  0
 11 12  1  0
 11 13  1  0
 13 14  1  0
 14 15  1  0
 15 16  2  0
 15 17  1  0
 17 18  1  0
 18 19  2  0
 19 20  1  0
 20 21  2  0
 21 22  1  0
 10 23  1  0
 23 24  2  0
 24  8  1  0
 22 18  1  0
  1 25  1  0
  1 26  1  0
  1 27  1  0
  2 28  1  0
  2 29  1  0
  6 30  1  0
  7 31  1  0
  7 32  1  0
  9 33  1  0
 11 34  1  0
 12 35  1  0
 12 36  1  0
 12 37  1  0
 13 38  1  0
 13 39  1  0
 14 40  1  0
 17 41  1  0
 17 42  1  0
 19 43  1  0
 20 44  1  0
 22 45  1  0
M  END
>  <Energy>  (1085) 
139.02540682545029

>  <compound_id>  (1085) 
17675

>  <target_id>  (1085) 
1

>  <reference_id>  (1085) 
13

>  <inspiration_ids>  (1085) 
[13, 122]

>  <energy_score>  (1085) 
129.1839602043102

>  <distance_score>  (1085) 
5.451006644182593

>  <path>  (1085) 
/opt/xchem-fragalysis-2/maxwin/BulkDock/SCRATCH/511014/C17675-P13/C17675-P13.minimised.mol

>  <scratch_subdir>  (1085) 
/opt/xchem-fragalysis-2/maxwin/BulkDock/SCRATCH/511014/C17675-P13

>  <fragmenstein_runtime>  (1085) 
11.770700693130493

>  <fragmenstein_outcome>  (1085) 
too moved

>  <fragmenstein_mode>  (1085) 
expansion

>  <fragmenstein_error>  (1085) 


$$$$
C17675-P122
     RDKit          3D

 45 46  0  0  0  0  0  0  0  0999 V2000
   -1.9849    0.3839   30.4204 C   0  0  0  0  0  0  0  0  0  0  0  0
   -0.4978    0.6060   30.3228 C   0  0  0  0  0  0  0  0  0  0  0  0
    0.2651   -0.3356   29.0057 S   0  0  0  0  0  0  0  0  0  0  0  0
    1.6926   -0.2712   29.2231 O   0  0  0  0  0  0  0  0  0  0  0  0
   -0.4020   -1.6165   28.9218 O   0  0  0  0  0  0  0  0  0  0  0  0
   -0.0442    0.5091   27.5580 N   0  0  0  0  0  0  0  0  0  0  0  0
    0.1804    1.9848   27.5406 C   0  0  0  0  0  0  0  0  0  0  0  0
    0.6660    2.5700   26.2205 C   0  0  0  0  0  0  0  0  0  0  0  0
    0.0864    2.8391   24.9773 C   0  0  0  0  0  0  0  0  0  0  0  0
    1.0874    3.4414   24.2147 N   0  0  0  0  0  0  0  0  0  0  0  0
    1.0868    4.0769   22.8750 C   0  0  0  0  0  0  0  0  0  0  0  0
   -0.0836    5.0697   22.7961 C   0  0  0  0  0  0  0  0  0  0  0  0
    1.1541    3.2750   21.4591 C   0  0  0  0  0  0  0  0  0  0  0  0
    2.2618    2.3184   21.2843 N   0  0  0  0  0  0  0  0  0  0  0  0
    3.0990    1.6053   22.2631 C   0  0  0  0  0  0  0  0  0  0  0  0
    2.9649    1.6182   23.4523 O   0  0  0  0  0  0  0  0  0  0  0  0
    4.7347    0.4206   21.6622 C   0  0  0  0  0  0  0  0  0  0  0  0
    6.4115    0.0583   20.5433 C   0  0  0  0  0  0  0  0  0  0  0  0
    7.1525    0.7891   19.5609 C   0  0  0  0  0  0  0  0  0  0  0  0
    7.5403   -0.1594   18.6745 C   0  0  0  0  0  0  0  0  0  0  0  0
    8.0692   -1.0050   19.5530 N   0  0  0  0  0  0  0  0  0  0  0  0
    7.0894   -1.0747   20.4278 N   0  0  0  0  0  0  0  0  0  0  0  0
    2.1069    3.7533   25.0562 N   0  0  0  0  0  0  0  0  0  0  0  0
    1.9136    3.1404   26.2149 N   0  0  0  0  0  0  0  0  0  0  0  0
   -2.3926    0.9234   31.2783 H   0  0  0  0  0  0  0  0  0  0  0  0
   -2.2176   -0.6755   30.5614 H   0  0  0  0  0  0  0  0  0  0  0  0
   -2.4838    0.7313   29.5131 H   0  0  0  0  0  0  0  0  0  0  0  0
   -0.0219    0.2606   31.2477 H   0  0  0  0  0  0  0  0  0  0  0  0
   -0.2453    1.6616   30.2063 H   0  0  0  0  0  0  0  0  0  0  0  0
    0.6108    0.0703   26.9024 H   0  0  0  0  0  0  0  0  0  0  0  0
   -0.7614    2.4740   27.8135 H   0  0  0  0  0  0  0  0  0  0  0  0
    0.9239    2.2475   28.3023 H   0  0  0  0  0  0  0  0  0  0  0  0
   -0.9011    2.6785   24.5802 H   0  0  0  0  0  0  0  0  0  0  0  0
    2.0074    4.6800   22.8752 H   0  0  0  0  0  0  0  0  0  0  0  0
   -1.0442    4.5445   22.7547 H   0  0  0  0  0  0  0  0  0  0  0  0
   -0.1005    5.7344   23.6670 H   0  0  0  0  0  0  0  0  0  0  0  0
   -0.0036    5.6964   21.9015 H   0  0  0  0  0  0  0  0  0  0  0  0
    1.2382    3.9986   20.6409 H   0  0  0  0  0  0  0  0  0  0  0  0
    0.1972    2.7688   21.3606 H   0  0  0  0  0  0  0  0  0  0  0  0
    2.6558    2.1897   20.3911 H   0  0  0  0  0  0  0  0  0  0  0  0
    4.7309   -0.5877   22.0843 H   0  0  0  0  0  0  0  0  0  0  0  0
    5.4659    0.9226   22.1611 H   0  0  0  0  0  0  0  0  0  0  0  0
    7.1558    1.8294   19.2839 H   0  0  0  0  0  0  0  0  0  0  0  0
    7.9080   -0.0206   17.6570 H   0  0  0  0  0  0  0  0  0  0  0  0
    6.5772   -1.9493   20.5208 H   0  0  0  0  0  0  0  0  0  0  0  0
  1  2  1  0
  2  3  1  0
  3  4  2  0
  3  5  2  0
  3  6  1  0
  6  7  1  0
  7  8  1  0
  8  9  2  0
  9 10  1  0
 10 11  1  0
 11 12  1  0
 11 13  1  0
 13 14  1  0
 14 15  1  0
 15 16  2  0
 15 17  1  0
 17 18  1  0
 18 19  2  0
 19 20  1  0
 20 21  2  0
 21 22  1  0
 10 23  1  0
 23 24  2  0
 24  8  1  0
 22 18  1  0
  1 25  1  0
  1 26  1  0
  1 27  1  0
  2 28  1  0
  2 29  1  0
  6 30  1  0
  7 31  1  0
  7 32  1  0
  9 33  1  0
 11 34  1  0
 12 35  1  0
 12 36  1  0
 12 37  1  0
 13 38  1  0
 13 39  1  0
 14 40  1  0
 17 41  1  0
 17 42  1  0
 19 43  1  0
 20 44  1  0
 22 45  1  0
M  END
>  <Energy>  (1086) 
244.89146562184149

>  <compound_id>  (1086) 
17675

>  <target_id>  (1086) 
1

>  <reference_id>  (1086) 
122

>  <inspiration_ids>  (1086) 
[13, 122]

>  <energy_score>  (1086) 
235.05001900070528

>  <distance_score>  (1086) 
5.370212187750397

>  <path>  (1086) 
/opt/xchem-fragalysis-2/maxwin/BulkDock/SCRATCH/511014/C17675-P122/C17675-P122.minimised.mol

>  <scratch_subdir>  (1086) 
/opt/xchem-fragalysis-2/maxwin/BulkDock/SCRATCH/511014/C17675-P122

>  <fragmenstein_runtime>  (1086) 
11.570509672164917

>  <fragmenstein_outcome>  (1086) 
too moved

>  <fragmenstein_mode>  (1086) 
expansion

>  <fragmenstein_error>  (1086) 


$$$$
C17675-P13
     RDKit          3D

 45 46  0  0  0  0  0  0  0  0999 V2000
   -1.8883   -0.9624   31.0194 C   0  0  0  0  0  0  0  0  0  0  0  0
   -0.9099   -1.2871   29.9086 C   0  0  0  0  0  0  0  0  0  0  0  0
    0.0982   -2.7009   30.3278 S   0  0  0  0  0  0  0  0  0  0  0  0
    0.9316   -2.3647   31.4607 O   0  0  0  0  0  0  0  0  0  0  0  0
   -0.7492   -3.8724   30.3449 O   0  0  0  0  0  0  0  0  0  0  0  0
    1.0789   -2.8136   28.9628 N   0  0  0  0  0  0  0  0  0  0  0  0
    2.4654   -2.3414   29.1250 C   0  0  0  0  0  0  0  0  0  0  0  0
    3.1522   -2.2083   27.8038 C   0  0  0  0  0  0  0  0  0  0  0  0
    3.5438   -1.0727   27.1239 C   0  0  0  0  0  0  0  0  0  0  0  0
    4.1625   -1.5293   25.9780 N   0  0  0  0  0  0  0  0  0  0  0  0
    4.6796   -0.7459   24.8166 C   0  0  0  0  0  0  0  0  0  0  0  0
    4.2002    0.7145   24.9290 C   0  0  0  0  0  0  0  0  0  0  0  0
    4.6622   -1.5788   23.2178 C   0  0  0  0  0  0  0  0  0  0  0  0
    5.0184   -0.6499   21.6883 N   0  0  0  0  0  0  0  0  0  0  0  0
    6.5210   -0.6593   20.5708 C   0  0  0  0  0  0  0  0  0  0  0  0
    7.4204   -1.3953   20.7090 O   0  0  0  0  0  0  0  0  0  0  0  0
    6.8832    0.4542   19.3341 C   0  0  0  0  0  0  0  0  0  0  0  0
    8.0258    0.6118   18.2741 C   0  0  0  0  0  0  0  0  0  0  0  0
    8.8837    1.6996   18.0844 C   0  0  0  0  0  0  0  0  0  0  0  0
    9.4804    1.5342   16.8168 C   0  0  0  0  0  0  0  0  0  0  0  0
    9.0316    0.4326   16.2259 N   0  0  0  0  0  0  0  0  0  0  0  0
    7.9361    0.1869   16.9513 N   0  0  0  0  0  0  0  0  0  0  0  0
    4.2272   -2.8764   26.0077 N   0  0  0  0  0  0  0  0  0  0  0  0
    3.5772   -3.3004   27.0903 N   0  0  0  0  0  0  0  0  0  0  0  0
   -1.3632   -0.6833   31.9383 H   0  0  0  0  0  0  0  0  0  0  0  0
   -2.5281   -1.8207   31.2482 H   0  0  0  0  0  0  0  0  0  0  0  0
   -2.5284   -0.1290   30.7227 H   0  0  0  0  0  0  0  0  0  0  0  0
   -0.2404   -0.4404   29.7317 H   0  0  0  0  0  0  0  0  0  0  0  0
   -1.4466   -1.5279   28.9859 H   0  0  0  0  0  0  0  0  0  0  0  0
    0.9801   -3.7180   28.4982 H   0  0  0  0  0  0  0  0  0  0  0  0
    2.4754   -1.3654   29.6231 H   0  0  0  0  0  0  0  0  0  0  0  0
    3.0218   -3.0572   29.7400 H   0  0  0  0  0  0  0  0  0  0  0  0
    3.4233   -0.0250   27.3522 H   0  0  0  0  0  0  0  0  0  0  0  0
    5.7142   -0.6796   25.1654 H   0  0  0  0  0  0  0  0  0  0  0  0
    4.7052    1.2106   25.7685 H   0  0  0  0  0  0  0  0  0  0  0  0
    4.4062    1.3253   24.0524 H   0  0  0  0  0  0  0  0  0  0  0  0
    3.1348    0.7846   25.1393 H   0  0  0  0  0  0  0  0  0  0  0  0
    3.6455   -1.9654   23.1712 H   0  0  0  0  0  0  0  0  0  0  0  0
    5.3912   -2.3743   23.3384 H   0  0  0  0  0  0  0  0  0  0  0  0
    4.4024    0.1337   21.4321 H   0  0  0  0  0  0  0  0  0  0  0  0
    7.2248    1.3388   19.8790 H   0  0  0  0  0  0  0  0  0  0  0  0
    6.0374    0.5464   18.7638 H   0  0  0  0  0  0  0  0  0  0  0  0
    9.0407    2.5244   18.7678 H   0  0  0  0  0  0  0  0  0  0  0  0
   10.2168    2.1500   16.3183 H   0  0  0  0  0  0  0  0  0  0  0  0
    7.1325   -0.2372   16.4971 H   0  0  0  0  0  0  0  0  0  0  0  0
  1  2  1  0
  2  3  1  0
  3  4  2  0
  3  5  2  0
  3  6  1  0
  6  7  1  0
  7  8  1  0
  8  9  2  0
  9 10  1  0
 10 11  1  0
 11 12  1  0
 11 13  1  0
 13 14  1  0
 14 15  1  0
 15 16  2  0
 15 17  1  0
 17 18  1  0
 18 19  2  0
 19 20  1  0
 20 21  2  0
 21 22  1  0
 10 23  1  0
 23 24  2  0
 24  8  1  0
 22 18  1  0
  1 25  1  0
  1 26  1  0
  1 27  1  0
  2 28  1  0
  2 29  1  0
  6 30  1  0
  7 31  1  0
  7 32  1  0
  9 33  1  0
 11 34  1  0
 12 35  1  0
 12 36  1  0
 12 37  1  0
 13 38  1  0
 13 39  1  0
 14 40  1  0
 17 41  1  0
 17 42  1  0
 19 43  1  0
 20 44  1  0
 22 45  1  0
M  END
>  <Energy>  (1087) 
139.02540682545029

>  <compound_id>  (1087) 
17675

>  <target_id>  (1087) 
1

>  <reference_id>  (1087) 
13

>  <inspiration_ids>  (1087) 
[13, 122]

>  <energy_score>  (1087) 
129.1839602043102

>  <distance_score>  (1087) 
5.451006644182593

>  <path>  (1087) 
/opt/xchem-fragalysis-2/maxwin/BulkDock/SCRATCH/511014/C17675-P13/C17675-P13.minimised.mol

>  <scratch_subdir>  (1087) 
/opt/xchem-fragalysis-2/maxwin/BulkDock/SCRATCH/511014/C17675-P13

>  <fragmenstein_runtime>  (1087) 
12.1375253200531

>  <fragmenstein_outcome>  (1087) 
too moved

>  <fragmenstein_mode>  (1087) 
expansion

>  <fragmenstein_error>  (1087) 


$$$$
C17675-P122
     RDKit          3D

 45 46  0  0  0  0  0  0  0  0999 V2000
   -1.9849    0.3839   30.4204 C   0  0  0  0  0  0  0  0  0  0  0  0
   -0.4978    0.6060   30.3228 C   0  0  0  0  0  0  0  0  0  0  0  0
    0.2651   -0.3356   29.0057 S   0  0  0  0  0  0  0  0  0  0  0  0
    1.6926   -0.2712   29.2231 O   0  0  0  0  0  0  0  0  0  0  0  0
   -0.4020   -1.6165   28.9218 O   0  0  0  0  0  0  0  0  0  0  0  0
   -0.0442    0.5091   27.5580 N   0  0  0  0  0  0  0  0  0  0  0  0
    0.1804    1.9848   27.5406 C   0  0  0  0  0  0  0  0  0  0  0  0
    0.6660    2.5700   26.2205 C   0  0  0  0  0  0  0  0  0  0  0  0
    0.0864    2.8391   24.9773 C   0  0  0  0  0  0  0  0  0  0  0  0
    1.0874    3.4414   24.2147 N   0  0  0  0  0  0  0  0  0  0  0  0
    1.0868    4.0769   22.8750 C   0  0  0  0  0  0  0  0  0  0  0  0
   -0.0836    5.0697   22.7961 C   0  0  0  0  0  0  0  0  0  0  0  0
    1.1541    3.2750   21.4591 C   0  0  0  0  0  0  0  0  0  0  0  0
    2.2618    2.3184   21.2843 N   0  0  0  0  0  0  0  0  0  0  0  0
    3.0990    1.6053   22.2631 C   0  0  0  0  0  0  0  0  0  0  0  0
    2.9649    1.6182   23.4523 O   0  0  0  0  0  0  0  0  0  0  0  0
    4.7347    0.4206   21.6622 C   0  0  0  0  0  0  0  0  0  0  0  0
    6.4115    0.0583   20.5433 C   0  0  0  0  0  0  0  0  0  0  0  0
    7.1525    0.7891   19.5609 C   0  0  0  0  0  0  0  0  0  0  0  0
    7.5403   -0.1594   18.6745 C   0  0  0  0  0  0  0  0  0  0  0  0
    8.0692   -1.0050   19.5530 N   0  0  0  0  0  0  0  0  0  0  0  0
    7.0894   -1.0747   20.4278 N   0  0  0  0  0  0  0  0  0  0  0  0
    2.1069    3.7533   25.0562 N   0  0  0  0  0  0  0  0  0  0  0  0
    1.9136    3.1404   26.2149 N   0  0  0  0  0  0  0  0  0  0  0  0
   -2.3926    0.9234   31.2783 H   0  0  0  0  0  0  0  0  0  0  0  0
   -2.2176   -0.6755   30.5614 H   0  0  0  0  0  0  0  0  0  0  0  0
   -2.4838    0.7313   29.5131 H   0  0  0  0  0  0  0  0  0  0  0  0
   -0.0219    0.2606   31.2477 H   0  0  0  0  0  0  0  0  0  0  0  0
   -0.2453    1.6616   30.2063 H   0  0  0  0  0  0  0  0  0  0  0  0
    0.6108    0.0703   26.9024 H   0  0  0  0  0  0  0  0  0  0  0  0
   -0.7614    2.4740   27.8135 H   0  0  0  0  0  0  0  0  0  0  0  0
    0.9239    2.2475   28.3023 H   0  0  0  0  0  0  0  0  0  0  0  0
   -0.9011    2.6785   24.5802 H   0  0  0  0  0  0  0  0  0  0  0  0
    2.0074    4.6800   22.8752 H   0  0  0  0  0  0  0  0  0  0  0  0
   -1.0442    4.5445   22.7547 H   0  0  0  0  0  0  0  0  0  0  0  0
   -0.1005    5.7344   23.6670 H   0  0  0  0  0  0  0  0  0  0  0  0
   -0.0036    5.6964   21.9015 H   0  0  0  0  0  0  0  0  0  0  0  0
    1.2382    3.9986   20.6409 H   0  0  0  0  0  0  0  0  0  0  0  0
    0.1972    2.7688   21.3606 H   0  0  0  0  0  0  0  0  0  0  0  0
    2.6558    2.1897   20.3911 H   0  0  0  0  0  0  0  0  0  0  0  0
    4.7309   -0.5877   22.0843 H   0  0  0  0  0  0  0  0  0  0  0  0
    5.4659    0.9226   22.1611 H   0  0  0  0  0  0  0  0  0  0  0  0
    7.1558    1.8294   19.2839 H   0  0  0  0  0  0  0  0  0  0  0  0
    7.9080   -0.0206   17.6570 H   0  0  0  0  0  0  0  0  0  0  0  0
    6.5772   -1.9493   20.5208 H   0  0  0  0  0  0  0  0  0  0  0  0
  1  2  1  0
  2  3  1  0
  3  4  2  0
  3  5  2  0
  3  6  1  0
  6  7  1  0
  7  8  1  0
  8  9  2  0
  9 10  1  0
 10 11  1  0
 11 12  1  0
 11 13  1  0
 13 14  1  0
 14 15  1  0
 15 16  2  0
 15 17  1  0
 17 18  1  0
 18 19  2  0
 19 20  1  0
 20 21  2  0
 21 22  1  0
 10 23  1  0
 23 24  2  0
 24  8  1  0
 22 18  1  0
  1 25  1  0
  1 26  1  0
  1 27  1  0
  2 28  1  0
  2 29  1  0
  6 30  1  0
  7 31  1  0
  7 32  1  0
  9 33  1  0
 11 34  1  0
 12 35  1  0
 12 36  1  0
 12 37  1  0
 13 38  1  0
 13 39  1  0
 14 40  1  0
 17 41  1  0
 17 42  1  0
 19 43  1  0
 20 44  1  0
 22 45  1  0
M  END
>  <Energy>  (1088) 
244.89146562184149

>  <compound_id>  (1088) 
17675

>  <target_id>  (1088) 
1

>  <reference_id>  (1088) 
122

>  <inspiration_ids>  (1088) 
[13, 122]

>  <energy_score>  (1088) 
235.05001900070528

>  <distance_score>  (1088) 
5.370212187750397

>  <path>  (1088) 
/opt/xchem-fragalysis-2/maxwin/BulkDock/SCRATCH/511014/C17675-P122/C17675-P122.minimised.mol

>  <scratch_subdir>  (1088) 
/opt/xchem-fragalysis-2/maxwin/BulkDock/SCRATCH/511014/C17675-P122

>  <fragmenstein_runtime>  (1088) 
10.56398057937622

>  <fragmenstein_outcome>  (1088) 
too moved

>  <fragmenstein_mode>  (1088) 
expansion

>  <fragmenstein_error>  (1088) 


$$$$
C13926-P9
     RDKit          3D

 26 27  0  0  0  0  0  0  0  0999 V2000
  -13.5817  -25.2255   13.9034 C   0  0  0  0  0  0  0  0  0  0  0  0
  -12.7019  -25.9903   14.6420 C   0  0  0  0  0  0  0  0  0  0  0  0
  -11.6695  -26.6575   14.1025 N   0  0  0  0  0  0  0  0  0  0  0  0
  -11.5415  -26.5949   12.7518 C   0  0  0  0  0  0  0  0  0  0  0  0
  -12.4069  -25.9048   11.8955 C   0  0  0  0  0  0  0  0  0  0  0  0
  -12.4138  -26.0349   10.3744 C   0  0  0  0  0  0  0  0  0  0  0  0
  -11.3539  -26.9945    9.8138 C   0  0  0  0  0  0  0  0  0  0  0  0
  -11.5324  -27.1980    8.3134 C   0  0  0  0  0  0  0  0  0  0  0  0
  -11.5523  -25.8618    7.5891 C   0  0  0  0  0  0  0  0  0  0  0  0
  -12.5424  -24.8949    8.2301 C   0  0  0  0  0  0  0  0  0  0  0  0
  -12.3197  -24.7384    9.6769 N   0  0  0  0  0  0  0  0  0  0  0  0
  -13.4250  -25.1791   12.5231 C   0  0  0  0  0  0  0  0  0  0  0  0
  -14.3884  -24.6892   14.3907 H   0  0  0  0  0  0  0  0  0  0  0  0
  -12.7974  -26.0766   15.7199 H   0  0  0  0  0  0  0  0  0  0  0  0
  -10.7052  -27.1764   12.3735 H   0  0  0  0  0  0  0  0  0  0  0  0
  -13.3958  -26.4751   10.1418 H   0  0  0  0  0  0  0  0  0  0  0  0
  -11.4264  -27.9757   10.2990 H   0  0  0  0  0  0  0  0  0  0  0  0
  -10.3443  -26.6110   10.0133 H   0  0  0  0  0  0  0  0  0  0  0  0
  -12.4726  -27.7311    8.1251 H   0  0  0  0  0  0  0  0  0  0  0  0
  -10.7248  -27.8257    7.9208 H   0  0  0  0  0  0  0  0  0  0  0  0
  -11.8103  -26.0135    6.5350 H   0  0  0  0  0  0  0  0  0  0  0  0
  -10.5458  -25.4272    7.6092 H   0  0  0  0  0  0  0  0  0  0  0  0
  -12.4480  -23.9132    7.7530 H   0  0  0  0  0  0  0  0  0  0  0  0
  -13.5695  -25.2360    8.0504 H   0  0  0  0  0  0  0  0  0  0  0  0
  -13.0371  -24.1154   10.0390 H   0  0  0  0  0  0  0  0  0  0  0  0
  -14.1509  -24.6224   11.9364 H   0  0  0  0  0  0  0  0  0  0  0  0
  1  2  2  0
  2  3  1  0
  3  4  2  0
  4  5  1  0
  5  6  1  0
  6  7  1  0
  7  8  1  0
  8  9  1  0
  9 10  1  0
 10 11  1  0
  5 12  2  0
 12  1  1  0
 11  6  1  0
  1 13  1  0
  2 14  1  0
  4 15  1  0
  6 16  1  0
  7 17  1  0
  7 18  1  0
  8 19  1  0
  8 20  1  0
  9 21  1  0
  9 22  1  0
 10 23  1  0
 10 24  1  0
 11 25  1  0
 12 26  1  0
M  END
>  <Energy>  (1089) 
16.725088068378675

>  <compound_id>  (1089) 
13926

>  <target_id>  (1089) 
1

>  <reference_id>  (1089) 
9

>  <inspiration_ids>  (1089) 
[9, 48]

>  <energy_score>  (1089) 
-22.093971608981875

>  <distance_score>  (1089) 
2.040322707204356

>  <path>  (1089) 
/opt/xchem-fragalysis-2/maxwin/BulkDock/SCRATCH/511014/C13926-P9/C13926-P9.minimised.mol

>  <scratch_subdir>  (1089) 
/opt/xchem-fragalysis-2/maxwin/BulkDock/SCRATCH/511014/C13926-P9

>  <fragmenstein_runtime>  (1089) 
2.5211455821990967

>  <fragmenstein_outcome>  (1089) 
too moved

>  <fragmenstein_mode>  (1089) 
expansion

>  <fragmenstein_error>  (1089) 


$$$$
C13926-P48
     RDKit          3D

 26 27  0  0  0  0  0  0  0  0999 V2000
  -13.5314  -25.2428   13.9048 C   0  0  0  0  0  0  0  0  0  0  0  0
  -12.6258  -25.9795   14.6410 C   0  0  0  0  0  0  0  0  0  0  0  0
  -11.5936  -26.6413   14.0948 N   0  0  0  0  0  0  0  0  0  0  0  0
  -11.4844  -26.5927   12.7420 C   0  0  0  0  0  0  0  0  0  0  0  0
  -12.3706  -25.9248   11.8899 C   0  0  0  0  0  0  0  0  0  0  0  0
  -12.3869  -26.0587   10.3699 C   0  0  0  0  0  0  0  0  0  0  0  0
  -11.3303  -27.0182    9.8040 C   0  0  0  0  0  0  0  0  0  0  0  0
  -11.5167  -27.2202    8.3042 C   0  0  0  0  0  0  0  0  0  0  0  0
  -11.5388  -25.8830    7.5812 C   0  0  0  0  0  0  0  0  0  0  0  0
  -12.5258  -24.9163    8.2271 C   0  0  0  0  0  0  0  0  0  0  0  0
  -12.2955  -24.7631    9.6719 N   0  0  0  0  0  0  0  0  0  0  0  0
  -13.3944  -25.2112   12.5223 C   0  0  0  0  0  0  0  0  0  0  0  0
  -14.3424  -24.7163   14.3953 H   0  0  0  0  0  0  0  0  0  0  0  0
  -12.7018  -26.0518   15.7213 H   0  0  0  0  0  0  0  0  0  0  0  0
  -10.6434  -27.1640   12.3588 H   0  0  0  0  0  0  0  0  0  0  0  0
  -13.3703  -26.4989   10.1430 H   0  0  0  0  0  0  0  0  0  0  0  0
  -11.4003  -27.9992   10.2903 H   0  0  0  0  0  0  0  0  0  0  0  0
  -10.3195  -26.6350    9.9978 H   0  0  0  0  0  0  0  0  0  0  0  0
  -12.4582  -27.7523    8.1202 H   0  0  0  0  0  0  0  0  0  0  0  0
  -10.7115  -27.8481    7.9070 H   0  0  0  0  0  0  0  0  0  0  0  0
  -11.8009  -26.0336    6.5279 H   0  0  0  0  0  0  0  0  0  0  0  0
  -10.5322  -25.4483    7.5982 H   0  0  0  0  0  0  0  0  0  0  0  0
  -12.4318  -23.9339    7.7513 H   0  0  0  0  0  0  0  0  0  0  0  0
  -13.5540  -25.2561    8.0513 H   0  0  0  0  0  0  0  0  0  0  0  0
  -13.0071  -24.1392   10.0428 H   0  0  0  0  0  0  0  0  0  0  0  0
  -14.1361  -24.6735   11.9376 H   0  0  0  0  0  0  0  0  0  0  0  0
  1  2  2  0
  2  3  1  0
  3  4  2  0
  4  5  1  0
  5  6  1  0
  6  7  1  0
  7  8  1  0
  8  9  1  0
  9 10  1  0
 10 11  1  0
  5 12  2  0
 12  1  1  0
 11  6  1  0
  1 13  1  0
  2 14  1  0
  4 15  1  0
  6 16  1  0
  7 17  1  0
  7 18  1  0
  8 19  1  0
  8 20  1  0
  9 21  1  0
  9 22  1  0
 10 23  1  0
 10 24  1  0
 11 25  1  0
 12 26  1  0
M  END
>  <Energy>  (1090) 
16.460274913376473

>  <compound_id>  (1090) 
13926

>  <target_id>  (1090) 
1

>  <reference_id>  (1090) 
48

>  <inspiration_ids>  (1090) 
[9, 48]

>  <energy_score>  (1090) 
-22.358784763984076

>  <distance_score>  (1090) 
2.0393451659062514

>  <path>  (1090) 
/opt/xchem-fragalysis-2/maxwin/BulkDock/SCRATCH/511014/C13926-P48/C13926-P48.minimised.mol

>  <scratch_subdir>  (1090) 
/opt/xchem-fragalysis-2/maxwin/BulkDock/SCRATCH/511014/C13926-P48

>  <fragmenstein_runtime>  (1090) 
2.4231066703796387

>  <fragmenstein_outcome>  (1090) 
too moved

>  <fragmenstein_mode>  (1090) 
expansion

>  <fragmenstein_error>  (1090) 


$$$$
C13928-P9
     RDKit          3D

 26 27  0  0  0  0  0  0  0  0999 V2000
  -13.1713  -25.1758   13.8935 C   0  0  0  0  0  0  0  0  0  0  0  0
  -12.5241  -26.1942   14.5616 C   0  0  0  0  0  0  0  0  0  0  0  0
  -11.8098  -27.1426   13.9378 N   0  0  0  0  0  0  0  0  0  0  0  0
  -11.7817  -27.0909   12.5812 C   0  0  0  0  0  0  0  0  0  0  0  0
  -12.4145  -26.1200   11.7947 C   0  0  0  0  0  0  0  0  0  0  0  0
  -12.5218  -26.2433   10.2711 C   0  0  0  0  0  0  0  0  0  0  0  0
  -11.2268  -26.6947    9.5710 C   0  0  0  0  0  0  0  0  0  0  0  0
  -11.4364  -26.8286    8.0603 C   0  0  0  0  0  0  0  0  0  0  0  0
  -12.0048  -25.5560    7.4448 C   0  0  0  0  0  0  0  0  0  0  0  0
  -13.2394  -25.1513    8.1086 N   0  0  0  0  0  0  0  0  0  0  0  0
  -13.0534  -24.9748    9.5501 C   0  0  0  0  0  0  0  0  0  0  0  0
  -13.0913  -25.1253   12.5068 C   0  0  0  0  0  0  0  0  0  0  0  0
  -13.7492  -24.4362   14.4368 H   0  0  0  0  0  0  0  0  0  0  0  0
  -12.5610  -26.2748   15.6432 H   0  0  0  0  0  0  0  0  0  0  0  0
  -11.2470  -27.9228   12.1301 H   0  0  0  0  0  0  0  0  0  0  0  0
  -13.2719  -27.0326   10.1084 H   0  0  0  0  0  0  0  0  0  0  0  0
  -10.8850  -27.6617    9.9556 H   0  0  0  0  0  0  0  0  0  0  0  0
  -10.4236  -25.9742    9.7707 H   0  0  0  0  0  0  0  0  0  0  0  0
  -12.1159  -27.6677    7.8631 H   0  0  0  0  0  0  0  0  0  0  0  0
  -10.4822  -27.0741    7.5803 H   0  0  0  0  0  0  0  0  0  0  0  0
  -12.2142  -25.7327    6.3841 H   0  0  0  0  0  0  0  0  0  0  0  0
  -11.2678  -24.7489    7.4908 H   0  0  0  0  0  0  0  0  0  0  0  0
  -13.5657  -24.2796    7.6930 H   0  0  0  0  0  0  0  0  0  0  0  0
  -12.3861  -24.1263    9.7358 H   0  0  0  0  0  0  0  0  0  0  0  0
  -14.0365  -24.7046    9.9505 H   0  0  0  0  0  0  0  0  0  0  0  0
  -13.6315  -24.3261   12.0101 H   0  0  0  0  0  0  0  0  0  0  0  0
  1  2  2  0
  2  3  1  0
  3  4  2  0
  4  5  1  0
  5  6  1  0
  6  7  1  0
  7  8  1  0
  8  9  1  0
  9 10  1  0
 10 11  1  0
  5 12  2  0
 12  1  1  0
 11  6  1  0
  1 13  1  0
  2 14  1  0
  4 15  1  0
  6 16  1  0
  7 17  1  0
  7 18  1  0
  8 19  1  0
  8 20  1  0
  9 21  1  0
  9 22  1  0
 10 23  1  0
 11 24  1  0
 11 25  1  0
 12 26  1  0
M  END
>  <Energy>  (1091) 
33.961356620046658

>  <compound_id>  (1091) 
13928

>  <target_id>  (1091) 
1

>  <reference_id>  (1091) 
9

>  <inspiration_ids>  (1091) 
[9, 48]

>  <energy_score>  (1091) 
-25.00853156048771

>  <distance_score>  (1091) 
1.8246017420167118

>  <path>  (1091) 
/opt/xchem-fragalysis-2/maxwin/BulkDock/SCRATCH/511014/C13928-P9/C13928-P9.minimised.mol

>  <scratch_subdir>  (1091) 
/opt/xchem-fragalysis-2/maxwin/BulkDock/SCRATCH/511014/C13928-P9

>  <fragmenstein_runtime>  (1091) 
2.058281421661377

>  <fragmenstein_outcome>  (1091) 
too moved

>  <fragmenstein_mode>  (1091) 
expansion

>  <fragmenstein_error>  (1091) 


$$$$
C13928-P48
     RDKit          3D

 26 27  0  0  0  0  0  0  0  0999 V2000
  -13.3886  -25.5469   14.0985 C   0  0  0  0  0  0  0  0  0  0  0  0
  -12.3482  -26.2165   14.7045 C   0  0  0  0  0  0  0  0  0  0  0  0
  -11.3685  -26.8308   14.0206 N   0  0  0  0  0  0  0  0  0  0  0  0
  -11.4436  -26.7919   12.6655 C   0  0  0  0  0  0  0  0  0  0  0  0
  -12.4568  -26.1613   11.9429 C   0  0  0  0  0  0  0  0  0  0  0  0
  -12.6232  -26.2148   10.4260 C   0  0  0  0  0  0  0  0  0  0  0  0
  -11.5428  -26.9900    9.6520 C   0  0  0  0  0  0  0  0  0  0  0  0
  -11.8460  -26.9857    8.1523 C   0  0  0  0  0  0  0  0  0  0  0  0
  -12.0203  -25.5680    7.6198 C   0  0  0  0  0  0  0  0  0  0  0  0
  -13.0442  -24.8329    8.3600 N   0  0  0  0  0  0  0  0  0  0  0  0
  -12.7762  -24.8079    9.8007 C   0  0  0  0  0  0  0  0  0  0  0  0
  -13.4354  -25.5184   12.7110 C   0  0  0  0  0  0  0  0  0  0  0  0
  -14.1615  -25.0707   14.6909 H   0  0  0  0  0  0  0  0  0  0  0  0
  -12.2681  -26.2790   15.7851 H   0  0  0  0  0  0  0  0  0  0  0  0
  -10.6376  -27.3276   12.1714 H   0  0  0  0  0  0  0  0  0  0  0  0
  -13.5683  -26.7551   10.2608 H   0  0  0  0  0  0  0  0  0  0  0  0
  -11.4892  -28.0277   10.0024 H   0  0  0  0  0  0  0  0  0  0  0  0
  -10.5564  -26.5400    9.8237 H   0  0  0  0  0  0  0  0  0  0  0  0
  -12.7577  -27.5664    7.9631 H   0  0  0  0  0  0  0  0  0  0  0  0
  -11.0329  -27.4846    7.6129 H   0  0  0  0  0  0  0  0  0  0  0  0
  -12.3108  -25.6128    6.5645 H   0  0  0  0  0  0  0  0  0  0  0  0
  -11.0656  -25.0342    7.6634 H   0  0  0  0  0  0  0  0  0  0  0  0
  -13.0707  -23.8779    8.0037 H   0  0  0  0  0  0  0  0  0  0  0  0
  -11.8839  -24.2127   10.0116 H   0  0  0  0  0  0  0  0  0  0  0  0
  -13.6127  -24.2744   10.2635 H   0  0  0  0  0  0  0  0  0  0  0  0
  -14.2840  -25.0308   12.2365 H   0  0  0  0  0  0  0  0  0  0  0  0
  1  2  2  0
  2  3  1  0
  3  4  2  0
  4  5  1  0
  5  6  1  0
  6  7  1  0
  7  8  1  0
  8  9  1  0
  9 10  1  0
 10 11  1  0
  5 12  2  0
 12  1  1  0
 11  6  1  0
  1 13  1  0
  2 14  1  0
  4 15  1  0
  6 16  1  0
  7 17  1  0
  7 18  1  0
  8 19  1  0
  8 20  1  0
  9 21  1  0
  9 22  1  0
 10 23  1  0
 11 24  1  0
 11 25  1  0
 12 26  1  0
M  END
>  <Energy>  (1092) 
32.221723482589873

>  <compound_id>  (1092) 
13928

>  <target_id>  (1092) 
1

>  <reference_id>  (1092) 
48

>  <inspiration_ids>  (1092) 
[9, 48]

>  <energy_score>  (1092) 
-26.74816469794486

>  <distance_score>  (1092) 
1.8295813731523287

>  <path>  (1092) 
/opt/xchem-fragalysis-2/maxwin/BulkDock/SCRATCH/511014/C13928-P48/C13928-P48.minimised.mol

>  <scratch_subdir>  (1092) 
/opt/xchem-fragalysis-2/maxwin/BulkDock/SCRATCH/511014/C13928-P48

>  <fragmenstein_runtime>  (1092) 
2.3487720489501953

>  <fragmenstein_outcome>  (1092) 
too moved

>  <fragmenstein_mode>  (1092) 
expansion

>  <fragmenstein_error>  (1092) 


$$$$
C13931-P9
     RDKit          3D

 53 54  0  0  0  0  0  0  0  0999 V2000
  -17.1467  -27.8454   19.8446 C   0  0  0  0  0  0  0  0  0  0  0  0
  -16.6104  -27.4664   18.4730 C   0  0  0  0  0  0  0  0  0  0  0  0
  -15.1147  -27.7764   18.3427 C   0  0  0  0  0  0  0  0  0  0  0  0
  -14.5621  -27.4267   16.9387 C   0  0  0  0  0  0  0  0  0  0  0  0
  -14.3537  -25.9099   16.8564 C   0  0  0  0  0  0  0  0  0  0  0  0
  -13.2226  -28.1908   16.6303 C   0  0  0  0  0  0  0  0  0  0  0  0
  -13.1953  -29.2028   15.4541 N   0  0  0  0  0  0  0  0  0  0  0  0
  -13.9541  -30.0260   16.4248 C   0  0  0  0  0  0  0  0  0  0  0  0
  -11.8604  -29.3420   14.9542 C   0  0  0  0  0  0  0  0  0  0  0  0
  -10.9863  -30.1103   15.2639 O   0  0  0  0  0  0  0  0  0  0  0  0
  -11.5268  -28.3919   13.7172 C   0  0  0  0  0  0  0  0  0  0  0  0
  -10.5873  -28.7339   13.0489 O   0  0  0  0  0  0  0  0  0  0  0  0
  -12.3725  -27.2399   13.6134 N   0  0  0  0  0  0  0  0  0  0  0  0
  -13.5678  -27.5493   12.7315 C   0  0  0  0  0  0  0  0  0  0  0  0
  -14.8465  -26.7826   13.0885 C   0  0  0  0  0  0  0  0  0  0  0  0
  -14.7066  -25.2927   12.8790 C   0  0  0  0  0  0  0  0  0  0  0  0
  -13.2678  -24.8792   13.1049 C   0  0  0  0  0  0  0  0  0  0  0  0
  -12.2853  -25.9966   12.6809 C   0  0  0  0  0  0  0  0  0  0  0  0
  -11.9017  -26.0450   11.1862 C   0  0  0  0  0  0  0  0  0  0  0  0
  -10.7321  -26.6697   10.7406 C   0  0  0  0  0  0  0  0  0  0  0  0
  -10.3998  -26.6737    9.3847 C   0  0  0  0  0  0  0  0  0  0  0  0
  -11.2388  -26.0295    8.4957 C   0  0  0  0  0  0  0  0  0  0  0  0
  -12.3618  -25.3913    8.8748 N   0  0  0  0  0  0  0  0  0  0  0  0
  -12.6552  -25.4088   10.1954 C   0  0  0  0  0  0  0  0  0  0  0  0
  -18.2215  -27.6455   19.8987 H   0  0  0  0  0  0  0  0  0  0  0  0
  -16.9883  -28.9089   20.0497 H   0  0  0  0  0  0  0  0  0  0  0  0
  -16.6567  -27.2655   20.6319 H   0  0  0  0  0  0  0  0  0  0  0  0
  -17.1674  -28.0223   17.7097 H   0  0  0  0  0  0  0  0  0  0  0  0
  -16.8025  -26.4028   18.3007 H   0  0  0  0  0  0  0  0  0  0  0  0
  -14.9675  -28.8380   18.5661 H   0  0  0  0  0  0  0  0  0  0  0  0
  -14.5539  -27.2249   19.1069 H   0  0  0  0  0  0  0  0  0  0  0  0
  -15.3082  -27.6913   16.1814 H   0  0  0  0  0  0  0  0  0  0  0  0
  -13.9126  -25.6320   15.9004 H   0  0  0  0  0  0  0  0  0  0  0  0
  -15.3001  -25.3686   16.9465 H   0  0  0  0  0  0  0  0  0  0  0  0
  -13.6877  -25.5605   17.6496 H   0  0  0  0  0  0  0  0  0  0  0  0
  -12.6867  -28.5343   17.5336 H   0  0  0  0  0  0  0  0  0  0  0  0
  -12.5215  -27.4148   16.2853 H   0  0  0  0  0  0  0  0  0  0  0  0
  -15.0123  -29.7667   16.5222 H   0  0  0  0  0  0  0  0  0  0  0  0
  -14.0062  -30.9991   15.9110 H   0  0  0  0  0  0  0  0  0  0  0  0
  -13.4351  -30.3107   17.3521 H   0  0  0  0  0  0  0  0  0  0  0  0
  -13.8266  -28.5875   12.9963 H   0  0  0  0  0  0  0  0  0  0  0  0
  -13.3904  -27.7003   11.6588 H   0  0  0  0  0  0  0  0  0  0  0  0
  -15.0928  -26.9698   14.1358 H   0  0  0  0  0  0  0  0  0  0  0  0
  -15.6903  -27.1656   12.5031 H   0  0  0  0  0  0  0  0  0  0  0  0
  -15.3781  -24.7400   13.5461 H   0  0  0  0  0  0  0  0  0  0  0  0
  -15.0295  -25.0425   11.8646 H   0  0  0  0  0  0  0  0  0  0  0  0
  -13.0573  -23.9325   12.5947 H   0  0  0  0  0  0  0  0  0  0  0  0
  -13.1276  -24.6823   14.1704 H   0  0  0  0  0  0  0  0  0  0  0  0
  -11.3373  -25.5881   13.0756 H   0  0  0  0  0  0  0  0  0  0  0  0
  -10.0509  -27.1474   11.4400 H   0  0  0  0  0  0  0  0  0  0  0  0
   -9.4931  -27.1579    9.0376 H   0  0  0  0  0  0  0  0  0  0  0  0
  -11.0116  -25.9907    7.4344 H   0  0  0  0  0  0  0  0  0  0  0  0
  -13.5570  -24.8523   10.4160 H   0  0  0  0  0  0  0  0  0  0  0  0
  1  2  1  0
  2  3  1  0
  3  4  1  0
  4  5  1  0
  4  6  1  0
  6  7  1  0
  7  8  1  0
  7  9  1  0
  9 10  2  0
  9 11  1  0
 11 12  2  0
 11 13  1  0
 13 14  1  0
 14 15  1  0
 15 16  1  0
 16 17  1  0
 17 18  1  0
 18 19  1  0
 19 20  2  0
 20 21  1  0
 21 22  2  0
 22 23  1  0
 23 24  2  0
 18 13  1  0
 24 19  1  0
  1 25  1  0
  1 26  1  0
  1 27  1  0
  2 28  1  0
  2 29  1  0
  3 30  1  0
  3 31  1  0
  4 32  1  0
  5 33  1  0
  5 34  1  0
  5 35  1  0
  6 36  1  0
  6 37  1  0
  8 38  1  0
  8 39  1  0
  8 40  1  0
 14 41  1  0
 14 42  1  0
 15 43  1  0
 15 44  1  0
 16 45  1  0
 16 46  1  0
 17 47  1  0
 17 48  1  0
 18 49  1  0
 20 50  1  0
 21 51  1  0
 22 52  1  0
 24 53  1  0
M  END
>  <Energy>  (1093) 
227.71524756586467

>  <compound_id>  (1093) 
13931

>  <target_id>  (1093) 
1

>  <reference_id>  (1093) 
9

>  <inspiration_ids>  (1093) 
[9, 48]

>  <energy_score>  (1093) 
111.2539105401234

>  <distance_score>  (1093) 
2.9961132548589884

>  <path>  (1093) 
/opt/xchem-fragalysis-2/maxwin/BulkDock/SCRATCH/511014/C13931-P9/C13931-P9.minimised.mol

>  <scratch_subdir>  (1093) 
/opt/xchem-fragalysis-2/maxwin/BulkDock/SCRATCH/511014/C13931-P9

>  <fragmenstein_runtime>  (1093) 
8.465135335922241

>  <fragmenstein_outcome>  (1093) 
too moved

>  <fragmenstein_mode>  (1093) 
expansion

>  <fragmenstein_error>  (1093) 


$$$$
C13931-P48
     RDKit          3D

 53 54  0  0  0  0  0  0  0  0999 V2000
  -17.1903  -27.8164   19.7667 C   0  0  0  0  0  0  0  0  0  0  0  0
  -16.6322  -27.4478   18.4009 C   0  0  0  0  0  0  0  0  0  0  0  0
  -15.1498  -27.8178   18.2761 C   0  0  0  0  0  0  0  0  0  0  0  0
  -14.5706  -27.4759   16.8802 C   0  0  0  0  0  0  0  0  0  0  0  0
  -14.3209  -25.9637   16.8195 C   0  0  0  0  0  0  0  0  0  0  0  0
  -13.2443  -28.2687   16.5826 C   0  0  0  0  0  0  0  0  0  0  0  0
  -13.2222  -29.3058   15.4251 N   0  0  0  0  0  0  0  0  0  0  0  0
  -14.0183  -30.0891   16.3966 C   0  0  0  0  0  0  0  0  0  0  0  0
  -11.8822  -29.4890   14.9523 C   0  0  0  0  0  0  0  0  0  0  0  0
  -11.0333  -30.2736   15.2930 O   0  0  0  0  0  0  0  0  0  0  0  0
  -11.5011  -28.5735   13.7029 C   0  0  0  0  0  0  0  0  0  0  0  0
  -10.5979  -28.9879   13.0253 O   0  0  0  0  0  0  0  0  0  0  0  0
  -12.2441  -27.3527   13.6167 N   0  0  0  0  0  0  0  0  0  0  0  0
  -13.4663  -27.5475   12.7384 C   0  0  0  0  0  0  0  0  0  0  0  0
  -14.6737  -26.6696   13.0912 C   0  0  0  0  0  0  0  0  0  0  0  0
  -14.3927  -25.1898   12.9545 C   0  0  0  0  0  0  0  0  0  0  0  0
  -12.9184  -24.9213   13.1731 C   0  0  0  0  0  0  0  0  0  0  0  0
  -12.0547  -26.1110   12.6973 C   0  0  0  0  0  0  0  0  0  0  0  0
  -11.7193  -26.1618   11.1917 C   0  0  0  0  0  0  0  0  0  0  0  0
  -10.6412  -26.9025   10.6963 C   0  0  0  0  0  0  0  0  0  0  0  0
  -10.3465  -26.9032    9.3316 C   0  0  0  0  0  0  0  0  0  0  0  0
  -11.1305  -26.1434    8.4845 C   0  0  0  0  0  0  0  0  0  0  0  0
  -12.1657  -25.3967    8.9120 N   0  0  0  0  0  0  0  0  0  0  0  0
  -12.4216  -25.4165   10.2400 C   0  0  0  0  0  0  0  0  0  0  0  0
  -16.6799  -27.2644   20.5612 H   0  0  0  0  0  0  0  0  0  0  0  0
  -18.2561  -27.5724   19.8181 H   0  0  0  0  0  0  0  0  0  0  0  0
  -17.0770  -28.8873   19.9630 H   0  0  0  0  0  0  0  0  0  0  0  0
  -17.2071  -27.9732   17.6293 H   0  0  0  0  0  0  0  0  0  0  0  0
  -16.7794  -26.3756   18.2387 H   0  0  0  0  0  0  0  0  0  0  0  0
  -15.0477  -28.8859   18.4921 H   0  0  0  0  0  0  0  0  0  0  0  0
  -14.5732  -27.2961   19.0494 H   0  0  0  0  0  0  0  0  0  0  0  0
  -15.3125  -27.7156   16.1103 H   0  0  0  0  0  0  0  0  0  0  0  0
  -13.8497  -25.6846   15.8783 H   0  0  0  0  0  0  0  0  0  0  0  0
  -15.2542  -25.3978   16.8943 H   0  0  0  0  0  0  0  0  0  0  0  0
  -13.6650  -25.6424   17.6327 H   0  0  0  0  0  0  0  0  0  0  0  0
  -12.7180  -28.6073   17.4935 H   0  0  0  0  0  0  0  0  0  0  0  0
  -12.5289  -27.5108   16.2283 H   0  0  0  0  0  0  0  0  0  0  0  0
  -15.0728  -29.8050   16.4593 H   0  0  0  0  0  0  0  0  0  0  0  0
  -14.0792  -31.0732   15.9051 H   0  0  0  0  0  0  0  0  0  0  0  0
  -13.5280  -30.3631   17.3425 H   0  0  0  0  0  0  0  0  0  0  0  0
  -13.8184  -28.5582   13.0024 H   0  0  0  0  0  0  0  0  0  0  0  0
  -13.3028  -27.7165   11.6660 H   0  0  0  0  0  0  0  0  0  0  0  0
  -14.9720  -26.8768   14.1206 H   0  0  0  0  0  0  0  0  0  0  0  0
  -15.5320  -26.9470   12.4682 H   0  0  0  0  0  0  0  0  0  0  0  0
  -14.9997  -24.6106   13.6599 H   0  0  0  0  0  0  0  0  0  0  0  0
  -14.7064  -24.8572   11.9610 H   0  0  0  0  0  0  0  0  0  0  0  0
  -12.6242  -23.9798   12.6950 H   0  0  0  0  0  0  0  0  0  0  0  0
  -12.7424  -24.7849   14.2429 H   0  0  0  0  0  0  0  0  0  0  0  0
  -11.0618  -25.8035   13.0724 H   0  0  0  0  0  0  0  0  0  0  0  0
  -10.0004  -27.4736   11.3630 H   0  0  0  0  0  0  0  0  0  0  0  0
   -9.5094  -27.4753    8.9459 H   0  0  0  0  0  0  0  0  0  0  0  0
  -10.9289  -26.0995    7.4183 H   0  0  0  0  0  0  0  0  0  0  0  0
  -13.2448  -24.7643   10.5012 H   0  0  0  0  0  0  0  0  0  0  0  0
  1  2  1  0
  2  3  1  0
  3  4  1  0
  4  5  1  0
  4  6  1  0
  6  7  1  0
  7  8  1  0
  7  9  1  0
  9 10  2  0
  9 11  1  0
 11 12  2  0
 11 13  1  0
 13 14  1  0
 14 15  1  0
 15 16  1  0
 16 17  1  0
 17 18  1  0
 18 19  1  0
 19 20  2  0
 20 21  1  0
 21 22  2  0
 22 23  1  0
 23 24  2  0
 18 13  1  0
 24 19  1  0
  1 25  1  0
  1 26  1  0
  1 27  1  0
  2 28  1  0
  2 29  1  0
  3 30  1  0
  3 31  1  0
  4 32  1  0
  5 33  1  0
  5 34  1  0
  5 35  1  0
  6 36  1  0
  6 37  1  0
  8 38  1  0
  8 39  1  0
  8 40  1  0
 14 41  1  0
 14 42  1  0
 15 43  1  0
 15 44  1  0
 16 45  1  0
 16 46  1  0
 17 47  1  0
 17 48  1  0
 18 49  1  0
 20 50  1  0
 21 51  1  0
 22 52  1  0
 24 53  1  0
M  END
>  <Energy>  (1094) 
228.7552422090927

>  <compound_id>  (1094) 
13931

>  <target_id>  (1094) 
1

>  <reference_id>  (1094) 
48

>  <inspiration_ids>  (1094) 
[9, 48]

>  <energy_score>  (1094) 
112.29390518335066

>  <distance_score>  (1094) 
2.892969041611921

>  <path>  (1094) 
/opt/xchem-fragalysis-2/maxwin/BulkDock/SCRATCH/511014/C13931-P48/C13931-P48.minimised.mol

>  <scratch_subdir>  (1094) 
/opt/xchem-fragalysis-2/maxwin/BulkDock/SCRATCH/511014/C13931-P48

>  <fragmenstein_runtime>  (1094) 
6.906158924102783

>  <fragmenstein_outcome>  (1094) 
too moved

>  <fragmenstein_mode>  (1094) 
expansion

>  <fragmenstein_error>  (1094) 


$$$$
C12015-P9
     RDKit          3D

 47 49  0  0  0  0  0  0  0  0999 V2000
  -10.4176  -24.1257   12.0377 C   0  0  0  0  0  0  0  0  0  0  0  0
  -11.7450  -24.7227   12.4525 C   0  0  0  0  0  0  0  0  0  0  0  0
  -12.2468  -25.5983   11.4254 N   0  0  0  0  0  0  0  0  0  0  0  0
  -13.7046  -26.0221   11.0827 C   0  0  0  0  0  0  0  0  0  0  0  0
  -14.7221  -25.6650   11.5325 O   0  0  0  0  0  0  0  0  0  0  0  0
  -13.6100  -26.9801    9.9029 C   0  0  0  0  0  0  0  0  0  0  0  0
  -12.9960  -26.2797    8.7258 C   0  0  0  0  0  0  0  0  0  0  0  0
  -11.9186  -26.8261    8.0326 C   0  0  0  0  0  0  0  0  0  0  0  0
  -11.3483  -26.0975    6.9981 C   0  0  0  0  0  0  0  0  0  0  0  0
  -11.8760  -24.8507    6.6962 C   0  0  0  0  0  0  0  0  0  0  0  0
  -12.9307  -24.3009    7.3332 N   0  0  0  0  0  0  0  0  0  0  0  0
  -13.4687  -25.0278    8.3284 C   0  0  0  0  0  0  0  0  0  0  0  0
  -11.6525  -25.4031   13.8152 C   0  0  0  0  0  0  0  0  0  0  0  0
  -13.0530  -25.7958   14.3123 C   0  0  0  0  0  0  0  0  0  0  0  0
  -13.2189  -27.3077   14.3125 C   0  0  0  0  0  0  0  0  0  0  0  0
  -12.2456  -27.9069   15.2436 N   0  0  0  0  0  0  0  0  0  0  0  0
  -12.8637  -27.9441   16.5010 C   0  0  0  0  0  0  0  0  0  0  0  0
  -13.8179  -28.8798   16.6603 N   0  0  0  0  0  0  0  0  0  0  0  0
  -14.6712  -28.7350   17.6849 C   0  0  0  0  0  0  0  0  0  0  0  0
  -14.6271  -27.6767   18.5480 C   0  0  0  0  0  0  0  0  0  0  0  0
  -13.5816  -26.8122   18.3526 C   0  0  0  0  0  0  0  0  0  0  0  0
  -12.6709  -26.9418   17.3711 N   0  0  0  0  0  0  0  0  0  0  0  0
  -10.8945  -27.3277   15.2261 C   0  0  0  0  0  0  0  0  0  0  0  0
  -10.6512  -26.5660   13.9170 C   0  0  0  0  0  0  0  0  0  0  0  0
  -10.5857  -23.3757   11.2708 H   0  0  0  0  0  0  0  0  0  0  0  0
   -9.7243  -24.8780   11.6476 H   0  0  0  0  0  0  0  0  0  0  0  0
   -9.9318  -23.6077   12.8718 H   0  0  0  0  0  0  0  0  0  0  0  0
  -12.4715  -23.9046   12.5361 H   0  0  0  0  0  0  0  0  0  0  0  0
  -11.6024  -26.0481   10.7827 H   0  0  0  0  0  0  0  0  0  0  0  0
  -14.6142  -27.3323    9.6416 H   0  0  0  0  0  0  0  0  0  0  0  0
  -13.0237  -27.8533   10.2115 H   0  0  0  0  0  0  0  0  0  0  0  0
  -11.5124  -27.7994    8.2933 H   0  0  0  0  0  0  0  0  0  0  0  0
  -10.4965  -26.4780    6.4453 H   0  0  0  0  0  0  0  0  0  0  0  0
  -11.4399  -24.2379    5.9119 H   0  0  0  0  0  0  0  0  0  0  0  0
  -14.3165  -24.5559    8.8206 H   0  0  0  0  0  0  0  0  0  0  0  0
  -11.2581  -24.6455   14.4929 H   0  0  0  0  0  0  0  0  0  0  0  0
  -13.8513  -25.3122   13.7460 H   0  0  0  0  0  0  0  0  0  0  0  0
  -13.1905  -25.4187   15.3309 H   0  0  0  0  0  0  0  0  0  0  0  0
  -14.2596  -27.5693   14.5467 H   0  0  0  0  0  0  0  0  0  0  0  0
  -13.0421  -27.7198   13.3121 H   0  0  0  0  0  0  0  0  0  0  0  0
  -15.4378  -29.4992   17.7605 H   0  0  0  0  0  0  0  0  0  0  0  0
  -15.3606  -27.5331   19.3258 H   0  0  0  0  0  0  0  0  0  0  0  0
  -13.4529  -25.9444   18.9903 H   0  0  0  0  0  0  0  0  0  0  0  0
  -10.1683  -28.1446   15.3095 H   0  0  0  0  0  0  0  0  0  0  0  0
  -10.7006  -26.6467   16.0630 H   0  0  0  0  0  0  0  0  0  0  0  0
  -10.7481  -27.2475   13.0632 H   0  0  0  0  0  0  0  0  0  0  0  0
   -9.6245  -26.1840   13.9007 H   0  0  0  0  0  0  0  0  0  0  0  0
  1  2  1  0
  2  3  1  0
  3  4  1  0
  4  5  2  0
  4  6  1  0
  6  7  1  0
  7  8  2  0
  8  9  1  0
  9 10  2  0
 10 11  1  0
 11 12  2  0
  2 13  1  0
 13 14  1  0
 14 15  1  0
 15 16  1  0
 16 17  1  0
 17 18  2  0
 18 19  1  0
 19 20  2  0
 20 21  1  0
 21 22  2  0
 16 23  1  0
 23 24  1  0
 12  7  1  0
 24 13  1  0
 22 17  1  0
  1 25  1  0
  1 26  1  0
  1 27  1  0
  2 28  1  0
  3 29  1  0
  6 30  1  0
  6 31  1  0
  8 32  1  0
  9 33  1  0
 10 34  1  0
 12 35  1  0
 13 36  1  0
 14 37  1  0
 14 38  1  0
 15 39  1  0
 15 40  1  0
 19 41  1  0
 20 42  1  0
 21 43  1  0
 23 44  1  0
 23 45  1  0
 24 46  1  0
 24 47  1  0
M  END
>  <Energy>  (1095) 
-18.577652112425902

>  <compound_id>  (1095) 
12015

>  <target_id>  (1095) 
1

>  <reference_id>  (1095) 
9

>  <inspiration_ids>  (1095) 
[9, 48]

>  <energy_score>  (1095) 
-23.432318375124023

>  <distance_score>  (1095) 
1.5773263663213202

>  <path>  (1095) 
/opt/xchem-fragalysis-2/maxwin/BulkDock/SCRATCH/511014/C12015-P9/C12015-P9.minimised.mol

>  <scratch_subdir>  (1095) 
/opt/xchem-fragalysis-2/maxwin/BulkDock/SCRATCH/511014/C12015-P9

>  <fragmenstein_runtime>  (1095) 
7.698112726211548

>  <fragmenstein_outcome>  (1095) 
too moved

>  <fragmenstein_mode>  (1095) 
expansion

>  <fragmenstein_error>  (1095) 


$$$$
C12015-P48
     RDKit          3D

 47 49  0  0  0  0  0  0  0  0999 V2000
  -10.6811  -24.1631   12.0136 C   0  0  0  0  0  0  0  0  0  0  0  0
  -12.0199  -24.6033   12.5798 C   0  0  0  0  0  0  0  0  0  0  0  0
  -12.8576  -25.0075   11.4791 N   0  0  0  0  0  0  0  0  0  0  0  0
  -14.4013  -24.9884   11.3282 C   0  0  0  0  0  0  0  0  0  0  0  0
  -15.2259  -24.5708   12.0415 O   0  0  0  0  0  0  0  0  0  0  0  0
  -14.7448  -25.7552   10.0406 C   0  0  0  0  0  0  0  0  0  0  0  0
  -13.7847  -25.5219    8.9054 C   0  0  0  0  0  0  0  0  0  0  0  0
  -12.9365  -26.5238    8.4206 C   0  0  0  0  0  0  0  0  0  0  0  0
  -12.0151  -26.2099    7.4293 C   0  0  0  0  0  0  0  0  0  0  0  0
  -11.9794  -24.9070    6.9580 C   0  0  0  0  0  0  0  0  0  0  0  0
  -12.7962  -23.9228    7.3940 N   0  0  0  0  0  0  0  0  0  0  0  0
  -13.6741  -24.2494    8.3572 C   0  0  0  0  0  0  0  0  0  0  0  0
  -11.9743  -25.7537   13.6054 C   0  0  0  0  0  0  0  0  0  0  0  0
  -11.9350  -27.1693   13.0032 C   0  0  0  0  0  0  0  0  0  0  0  0
  -12.3198  -28.1934   14.0783 C   0  0  0  0  0  0  0  0  0  0  0  0
  -11.7904  -27.8224   15.3880 N   0  0  0  0  0  0  0  0  0  0  0  0
  -12.7315  -27.7065   16.3965 C   0  0  0  0  0  0  0  0  0  0  0  0
  -13.7344  -28.6064   16.4230 N   0  0  0  0  0  0  0  0  0  0  0  0
  -14.6833  -28.4727   17.3651 C   0  0  0  0  0  0  0  0  0  0  0  0
  -14.6880  -27.4644   18.2860 C   0  0  0  0  0  0  0  0  0  0  0  0
  -13.6187  -26.6127   18.2064 C   0  0  0  0  0  0  0  0  0  0  0  0
  -12.6249  -26.7260   17.3020 N   0  0  0  0  0  0  0  0  0  0  0  0
  -10.6179  -26.9645   15.4121 C   0  0  0  0  0  0  0  0  0  0  0  0
  -10.8419  -25.6602   14.6396 C   0  0  0  0  0  0  0  0  0  0  0  0
  -10.0285  -23.7521   12.7893 H   0  0  0  0  0  0  0  0  0  0  0  0
  -10.8334  -23.3623   11.2866 H   0  0  0  0  0  0  0  0  0  0  0  0
  -10.1585  -24.9849   11.5132 H   0  0  0  0  0  0  0  0  0  0  0  0
  -12.5021  -23.7402   13.0534 H   0  0  0  0  0  0  0  0  0  0  0  0
  -12.4490  -25.5219   10.7096 H   0  0  0  0  0  0  0  0  0  0  0  0
  -14.7919  -26.8205   10.2956 H   0  0  0  0  0  0  0  0  0  0  0  0
  -15.7490  -25.4541    9.7181 H   0  0  0  0  0  0  0  0  0  0  0  0
  -12.9809  -27.5359    8.8140 H   0  0  0  0  0  0  0  0  0  0  0  0
  -11.3318  -26.9545    7.0365 H   0  0  0  0  0  0  0  0  0  0  0  0
  -11.2611  -24.6057    6.1998 H   0  0  0  0  0  0  0  0  0  0  0  0
  -14.3058  -23.4304    8.6927 H   0  0  0  0  0  0  0  0  0  0  0  0
  -12.9283  -25.6804   14.1513 H   0  0  0  0  0  0  0  0  0  0  0  0
  -10.9299  -27.3829   12.6171 H   0  0  0  0  0  0  0  0  0  0  0  0
  -12.6237  -27.3071   12.1643 H   0  0  0  0  0  0  0  0  0  0  0  0
  -13.4140  -28.2812   14.0700 H   0  0  0  0  0  0  0  0  0  0  0  0
  -11.9277  -29.1780   13.7974 H   0  0  0  0  0  0  0  0  0  0  0  0
  -15.4739  -29.2152   17.3336 H   0  0  0  0  0  0  0  0  0  0  0  0
  -15.4721  -27.3445   19.0175 H   0  0  0  0  0  0  0  0  0  0  0  0
  -13.5267  -25.7802   18.8960 H   0  0  0  0  0  0  0  0  0  0  0  0
   -9.7979  -27.5137   14.9297 H   0  0  0  0  0  0  0  0  0  0  0  0
  -10.2586  -26.7702   16.4273 H   0  0  0  0  0  0  0  0  0  0  0  0
   -9.8871  -25.3956   14.1763 H   0  0  0  0  0  0  0  0  0  0  0  0
  -11.0739  -24.8579   15.3342 H   0  0  0  0  0  0  0  0  0  0  0  0
  1  2  1  0
  2  3  1  0
  3  4  1  0
  4  5  2  0
  4  6  1  0
  6  7  1  0
  7  8  2  0
  8  9  1  0
  9 10  2  0
 10 11  1  0
 11 12  2  0
  2 13  1  0
 13 14  1  0
 14 15  1  0
 15 16  1  0
 16 17  1  0
 17 18  2  0
 18 19  1  0
 19 20  2  0
 20 21  1  0
 21 22  2  0
 16 23  1  0
 23 24  1  0
 12  7  1  0
 24 13  1  0
 22 17  1  0
  1 25  1  0
  1 26  1  0
  1 27  1  0
  2 28  1  0
  3 29  1  0
  6 30  1  0
  6 31  1  0
  8 32  1  0
  9 33  1  0
 10 34  1  0
 12 35  1  0
 13 36  1  0
 14 37  1  0
 14 38  1  0
 15 39  1  0
 15 40  1  0
 19 41  1  0
 20 42  1  0
 21 43  1  0
 23 44  1  0
 23 45  1  0
 24 46  1  0
 24 47  1  0
M  END
>  <Energy>  (1096) 
-20.183595137000225

>  <compound_id>  (1096) 
12015

>  <target_id>  (1096) 
1

>  <reference_id>  (1096) 
48

>  <inspiration_ids>  (1096) 
[9, 48]

>  <energy_score>  (1096) 
-25.03826139969794

>  <distance_score>  (1096) 
1.698229467385494

>  <path>  (1096) 
/opt/xchem-fragalysis-2/maxwin/BulkDock/SCRATCH/511014/C12015-P48/C12015-P48.minimised.mol

>  <scratch_subdir>  (1096) 
/opt/xchem-fragalysis-2/maxwin/BulkDock/SCRATCH/511014/C12015-P48

>  <fragmenstein_runtime>  (1096) 
7.640237808227539

>  <fragmenstein_outcome>  (1096) 
too moved

>  <fragmenstein_mode>  (1096) 
expansion

>  <fragmenstein_error>  (1096) 


$$$$
C13933-P9
     RDKit          3D

 49 50  0  0  0  0  0  0  0  0999 V2000
  -11.3753  -26.4302   15.5446 C   0  0  0  0  0  0  0  0  0  0  0  0
  -10.3980  -27.4735   15.0645 C   0  0  0  0  0  0  0  0  0  0  0  0
   -9.9813  -28.2887   15.8336 O   0  0  0  0  0  0  0  0  0  0  0  0
  -10.1532  -27.2971   13.6640 N   0  0  0  0  0  0  0  0  0  0  0  0
   -9.4020  -28.1039   12.7205 C   0  0  0  0  0  0  0  0  0  0  0  0
   -8.6521  -27.1969   11.7438 C   0  0  0  0  0  0  0  0  0  0  0  0
  -10.3068  -29.1475   12.0067 C   0  0  0  0  0  0  0  0  0  0  0  0
  -11.2388  -28.5182   10.9787 C   0  0  0  0  0  0  0  0  0  0  0  0
  -12.5725  -29.2501   10.8391 C   0  0  0  0  0  0  0  0  0  0  0  0
  -13.3718  -29.2677   12.1295 N   0  0  0  0  0  0  0  0  0  0  0  0
  -14.7634  -29.2306   11.8454 C   0  0  0  0  0  0  0  0  0  0  0  0
  -15.5513  -30.1235   11.6780 O   0  0  0  0  0  0  0  0  0  0  0  0
  -15.2442  -27.7781   11.7321 C   0  0  0  0  0  0  0  0  0  0  0  0
  -14.6054  -26.7674   12.6932 C   0  0  0  0  0  0  0  0  0  0  0  0
  -13.4736  -25.9419   12.0819 C   0  0  0  0  0  0  0  0  0  0  0  0
  -12.4105  -25.7580   12.6777 O   0  0  0  0  0  0  0  0  0  0  0  0
  -13.6298  -25.3078   10.7480 C   0  0  0  0  0  0  0  0  0  0  0  0
  -12.5360  -25.2161    9.8824 C   0  0  0  0  0  0  0  0  0  0  0  0
  -12.7018  -24.6669    8.6128 C   0  0  0  0  0  0  0  0  0  0  0  0
  -13.9528  -24.1909    8.2650 C   0  0  0  0  0  0  0  0  0  0  0  0
  -15.0199  -24.2238    9.0942 N   0  0  0  0  0  0  0  0  0  0  0  0
  -14.8371  -24.7833   10.3161 C   0  0  0  0  0  0  0  0  0  0  0  0
  -12.4603  -30.4264   12.4227 C   0  0  0  0  0  0  0  0  0  0  0  0
  -11.1006  -30.0189   12.9819 C   0  0  0  0  0  0  0  0  0  0  0  0
  -12.3818  -26.6840   15.2047 H   0  0  0  0  0  0  0  0  0  0  0  0
  -11.0823  -25.4476   15.1703 H   0  0  0  0  0  0  0  0  0  0  0  0
  -11.3741  -26.4030   16.6375 H   0  0  0  0  0  0  0  0  0  0  0  0
  -10.7483  -26.5417   13.3143 H   0  0  0  0  0  0  0  0  0  0  0  0
   -8.6647  -28.6607   13.3128 H   0  0  0  0  0  0  0  0  0  0  0  0
   -9.3245  -26.5184   11.2092 H   0  0  0  0  0  0  0  0  0  0  0  0
   -7.9295  -26.5723   12.2760 H   0  0  0  0  0  0  0  0  0  0  0  0
   -8.1013  -27.7902   11.0068 H   0  0  0  0  0  0  0  0  0  0  0  0
   -9.6432  -29.8236   11.4482 H   0  0  0  0  0  0  0  0  0  0  0  0
  -11.4484  -27.4920   11.2650 H   0  0  0  0  0  0  0  0  0  0  0  0
  -10.7433  -28.4668   10.0016 H   0  0  0  0  0  0  0  0  0  0  0  0
  -12.5445  -30.1746   10.2370 H   0  0  0  0  0  0  0  0  0  0  0  0
  -13.1528  -28.6051   10.1598 H   0  0  0  0  0  0  0  0  0  0  0  0
  -16.3173  -27.8059   11.9654 H   0  0  0  0  0  0  0  0  0  0  0  0
  -15.1604  -27.4934   10.6800 H   0  0  0  0  0  0  0  0  0  0  0  0
  -14.2251  -27.2661   13.5915 H   0  0  0  0  0  0  0  0  0  0  0  0
  -15.3626  -26.0496   13.0317 H   0  0  0  0  0  0  0  0  0  0  0  0
  -11.5557  -25.5726   10.1830 H   0  0  0  0  0  0  0  0  0  0  0  0
  -11.8715  -24.5985    7.9157 H   0  0  0  0  0  0  0  0  0  0  0  0
  -14.1344  -23.7516    7.2875 H   0  0  0  0  0  0  0  0  0  0  0  0
  -15.7249  -24.7862   10.9417 H   0  0  0  0  0  0  0  0  0  0  0  0
  -12.4548  -31.2774   11.7206 H   0  0  0  0  0  0  0  0  0  0  0  0
  -12.9784  -30.9002   13.2729 H   0  0  0  0  0  0  0  0  0  0  0  0
  -11.2927  -29.5136   13.9285 H   0  0  0  0  0  0  0  0  0  0  0  0
  -10.5192  -30.9133   13.2368 H   0  0  0  0  0  0  0  0  0  0  0  0
  1  2  1  0
  2  3  2  0
  2  4  1  0
  4  5  1  0
  5  6  1  0
  5  7  1  0
  7  8  1  0
  8  9  1  0
  9 10  1  0
 10 11  1  0
 11 12  2  0
 11 13  1  0
 13 14  1  0
 14 15  1  0
 15 16  2  0
 15 17  1  0
 17 18  2  0
 18 19  1  0
 19 20  2  0
 20 21  1  0
 21 22  2  0
 10 23  1  0
 23 24  1  0
 24  7  1  0
 22 17  1  0
  1 25  1  0
  1 26  1  0
  1 27  1  0
  4 28  1  0
  5 29  1  0
  6 30  1  0
  6 31  1  0
  6 32  1  0
  7 33  1  0
  8 34  1  0
  8 35  1  0
  9 36  1  0
  9 37  1  0
 13 38  1  0
 13 39  1  0
 14 40  1  0
 14 41  1  0
 18 42  1  0
 19 43  1  0
 20 44  1  0
 22 45  1  0
 23 46  1  0
 23 47  1  0
 24 48  1  0
 24 49  1  0
M  END
>  <Energy>  (1097) 
76.056893952716834

>  <compound_id>  (1097) 
13933

>  <target_id>  (1097) 
1

>  <reference_id>  (1097) 
9

>  <inspiration_ids>  (1097) 
[9, 48]

>  <energy_score>  (1097) 
38.7319301257359

>  <distance_score>  (1097) 
4.390215819095433

>  <path>  (1097) 
/opt/xchem-fragalysis-2/maxwin/BulkDock/SCRATCH/511014/C13933-P9/C13933-P9.minimised.mol

>  <scratch_subdir>  (1097) 
/opt/xchem-fragalysis-2/maxwin/BulkDock/SCRATCH/511014/C13933-P9

>  <fragmenstein_runtime>  (1097) 
7.228649139404297

>  <fragmenstein_outcome>  (1097) 
too moved

>  <fragmenstein_mode>  (1097) 
expansion

>  <fragmenstein_error>  (1097) 


$$$$
C13933-P48
     RDKit          3D

 49 50  0  0  0  0  0  0  0  0999 V2000
   -8.1969  -26.2313    9.5435 C   0  0  0  0  0  0  0  0  0  0  0  0
   -8.5570  -25.5382   10.8424 C   0  0  0  0  0  0  0  0  0  0  0  0
   -7.7261  -25.3841   11.6855 O   0  0  0  0  0  0  0  0  0  0  0  0
   -9.9445  -25.1766   10.8184 N   0  0  0  0  0  0  0  0  0  0  0  0
  -10.7982  -24.5975   11.8448 C   0  0  0  0  0  0  0  0  0  0  0  0
  -10.2518  -23.3109   12.4483 C   0  0  0  0  0  0  0  0  0  0  0  0
  -11.2156  -25.6094   12.9206 C   0  0  0  0  0  0  0  0  0  0  0  0
  -11.6497  -26.9394   12.3202 C   0  0  0  0  0  0  0  0  0  0  0  0
  -11.6972  -27.9862   13.4256 C   0  0  0  0  0  0  0  0  0  0  0  0
  -12.3007  -27.3972   14.6814 N   0  0  0  0  0  0  0  0  0  0  0  0
  -13.1689  -28.3449   15.3004 C   0  0  0  0  0  0  0  0  0  0  0  0
  -12.9472  -29.1777   16.1365 O   0  0  0  0  0  0  0  0  0  0  0  0
  -14.5812  -28.0582   14.7746 C   0  0  0  0  0  0  0  0  0  0  0  0
  -15.2597  -29.2024   14.0449 C   0  0  0  0  0  0  0  0  0  0  0  0
  -14.7156  -29.5248   12.6573 C   0  0  0  0  0  0  0  0  0  0  0  0
  -14.1986  -30.6233   12.4435 O   0  0  0  0  0  0  0  0  0  0  0  0
  -14.7670  -28.5476   11.5220 C   0  0  0  0  0  0  0  0  0  0  0  0
  -14.0538  -28.8356   10.3472 C   0  0  0  0  0  0  0  0  0  0  0  0
  -14.0295  -27.9212    9.2933 C   0  0  0  0  0  0  0  0  0  0  0  0
  -14.7238  -26.7348    9.4445 C   0  0  0  0  0  0  0  0  0  0  0  0
  -15.4279  -26.4215   10.5553 N   0  0  0  0  0  0  0  0  0  0  0  0
  -15.4483  -27.3401   11.5597 C   0  0  0  0  0  0  0  0  0  0  0  0
  -10.8515  -27.0566   14.9551 C   0  0  0  0  0  0  0  0  0  0  0  0
  -10.2457  -25.9374   14.0572 C   0  0  0  0  0  0  0  0  0  0  0  0
   -8.6611  -27.2210    9.5172 H   0  0  0  0  0  0  0  0  0  0  0  0
   -7.1108  -26.3473    9.4806 H   0  0  0  0  0  0  0  0  0  0  0  0
   -8.5266  -25.6424    8.6839 H   0  0  0  0  0  0  0  0  0  0  0  0
  -10.3664  -25.5393    9.9682 H   0  0  0  0  0  0  0  0  0  0  0  0
  -11.7117  -24.3253   11.2986 H   0  0  0  0  0  0  0  0  0  0  0  0
  -10.9225  -22.9291   13.2242 H   0  0  0  0  0  0  0  0  0  0  0  0
   -9.2654  -23.4505   12.8919 H   0  0  0  0  0  0  0  0  0  0  0  0
  -10.1676  -22.5315   11.6874 H   0  0  0  0  0  0  0  0  0  0  0  0
  -12.0976  -25.1607   13.4054 H   0  0  0  0  0  0  0  0  0  0  0  0
  -12.6329  -26.7962   11.8700 H   0  0  0  0  0  0  0  0  0  0  0  0
  -10.9852  -27.3086   11.5332 H   0  0  0  0  0  0  0  0  0  0  0  0
  -10.7841  -28.6043   13.5042 H   0  0  0  0  0  0  0  0  0  0  0  0
  -12.3919  -28.7521   13.0745 H   0  0  0  0  0  0  0  0  0  0  0  0
  -15.1778  -27.8055   15.6614 H   0  0  0  0  0  0  0  0  0  0  0  0
  -14.5739  -27.1499   14.1640 H   0  0  0  0  0  0  0  0  0  0  0  0
  -16.3308  -28.9950   13.9345 H   0  0  0  0  0  0  0  0  0  0  0  0
  -15.1869  -30.1174   14.6460 H   0  0  0  0  0  0  0  0  0  0  0  0
  -13.5082  -29.7731   10.2519 H   0  0  0  0  0  0  0  0  0  0  0  0
  -13.4849  -28.1354    8.3801 H   0  0  0  0  0  0  0  0  0  0  0  0
  -14.7408  -25.9877    8.6557 H   0  0  0  0  0  0  0  0  0  0  0  0
  -16.0524  -27.0412   12.4104 H   0  0  0  0  0  0  0  0  0  0  0  0
  -10.1910  -27.9149   15.1662 H   0  0  0  0  0  0  0  0  0  0  0  0
  -10.9173  -26.6119   15.9607 H   0  0  0  0  0  0  0  0  0  0  0  0
  -10.0435  -25.0470   14.6614 H   0  0  0  0  0  0  0  0  0  0  0  0
   -9.2875  -26.2898   13.6635 H   0  0  0  0  0  0  0  0  0  0  0  0
  1  2  1  0
  2  3  2  0
  2  4  1  0
  4  5  1  0
  5  6  1  0
  5  7  1  0
  7  8  1  0
  8  9  1  0
  9 10  1  0
 10 11  1  0
 11 12  2  0
 11 13  1  0
 13 14  1  0
 14 15  1  0
 15 16  2  0
 15 17  1  0
 17 18  2  0
 18 19  1  0
 19 20  2  0
 20 21  1  0
 21 22  2  0
 10 23  1  0
 23 24  1  0
 24  7  1  0
 22 17  1  0
  1 25  1  0
  1 26  1  0
  1 27  1  0
  4 28  1  0
  5 29  1  0
  6 30  1  0
  6 31  1  0
  6 32  1  0
  7 33  1  0
  8 34  1  0
  8 35  1  0
  9 36  1  0
  9 37  1  0
 13 38  1  0
 13 39  1  0
 14 40  1  0
 14 41  1  0
 18 42  1  0
 19 43  1  0
 20 44  1  0
 22 45  1  0
 23 46  1  0
 23 47  1  0
 24 48  1  0
 24 49  1  0
M  END
>  <Energy>  (1098) 
88.260415213120453

>  <compound_id>  (1098) 
13933

>  <target_id>  (1098) 
1

>  <reference_id>  (1098) 
48

>  <inspiration_ids>  (1098) 
[9, 48]

>  <energy_score>  (1098) 
50.93545138613922

>  <distance_score>  (1098) 
2.620716610549265

>  <path>  (1098) 
/opt/xchem-fragalysis-2/maxwin/BulkDock/SCRATCH/511014/C13933-P48/C13933-P48.minimised.mol

>  <scratch_subdir>  (1098) 
/opt/xchem-fragalysis-2/maxwin/BulkDock/SCRATCH/511014/C13933-P48

>  <fragmenstein_runtime>  (1098) 
5.575591564178467

>  <fragmenstein_outcome>  (1098) 
too moved

>  <fragmenstein_mode>  (1098) 
expansion

>  <fragmenstein_error>  (1098) 


$$$$
C13935-P9
     RDKit          3D

 51 52  0  0  0  0  0  0  0  0999 V2000
  -15.7480  -29.8518   17.8372 C   0  0  0  0  0  0  0  0  0  0  0  0
  -15.7081  -28.1295   18.3894 S   0  0  0  0  0  0  0  0  0  0  0  0
  -14.5958  -27.4316   17.1045 C   0  0  0  0  0  0  0  0  0  0  0  0
  -14.6227  -25.9083   17.2105 C   0  0  0  0  0  0  0  0  0  0  0  0
  -13.1403  -27.9579   17.2398 C   0  0  0  0  0  0  0  0  0  0  0  0
  -12.7891  -28.6295   18.1730 O   0  0  0  0  0  0  0  0  0  0  0  0
  -12.3894  -27.4290   16.1375 N   0  0  0  0  0  0  0  0  0  0  0  0
  -12.4018  -28.4128   14.9748 C   0  0  0  0  0  0  0  0  0  0  0  0
  -12.1214  -27.8479   13.5682 C   0  0  0  0  0  0  0  0  0  0  0  0
  -11.5605  -26.4342   13.6658 C   0  0  0  0  0  0  0  0  0  0  0  0
  -11.0490  -25.8686   12.3309 C   0  0  0  0  0  0  0  0  0  0  0  0
  -10.6441  -24.4015   12.4653 C   0  0  0  0  0  0  0  0  0  0  0  0
  -12.0406  -26.0162   11.2826 N   0  0  0  0  0  0  0  0  0  0  0  0
  -13.4223  -25.6152   11.2265 C   0  0  0  0  0  0  0  0  0  0  0  0
  -14.1291  -25.1272   12.0608 O   0  0  0  0  0  0  0  0  0  0  0  0
  -14.0091  -25.9644    9.8567 C   0  0  0  0  0  0  0  0  0  0  0  0
  -13.4813  -25.0621    8.7809 C   0  0  0  0  0  0  0  0  0  0  0  0
  -12.5999  -25.5215    7.8010 C   0  0  0  0  0  0  0  0  0  0  0  0
  -12.0952  -24.6251    6.8671 C   0  0  0  0  0  0  0  0  0  0  0  0
  -12.4890  -23.2982    6.9470 C   0  0  0  0  0  0  0  0  0  0  0  0
  -13.3520  -22.8177    7.8715 N   0  0  0  0  0  0  0  0  0  0  0  0
  -13.8301  -23.7136    8.7616 C   0  0  0  0  0  0  0  0  0  0  0  0
  -10.4900  -26.4770   14.7493 C   0  0  0  0  0  0  0  0  0  0  0  0
  -10.9145  -27.4495   15.8571 C   0  0  0  0  0  0  0  0  0  0  0  0
  -16.0871  -29.9122   16.7998 H   0  0  0  0  0  0  0  0  0  0  0  0
  -16.4524  -30.4077   18.4620 H   0  0  0  0  0  0  0  0  0  0  0  0
  -14.7666  -30.3214   17.9318 H   0  0  0  0  0  0  0  0  0  0  0  0
  -15.0043  -27.7253   16.1325 H   0  0  0  0  0  0  0  0  0  0  0  0
  -14.1132  -25.5648   18.1170 H   0  0  0  0  0  0  0  0  0  0  0  0
  -15.6457  -25.5164   17.2055 H   0  0  0  0  0  0  0  0  0  0  0  0
  -14.1036  -25.4473   16.3627 H   0  0  0  0  0  0  0  0  0  0  0  0
  -11.9102  -29.3798   15.1848 H   0  0  0  0  0  0  0  0  0  0  0  0
  -13.4488  -28.7507   14.9202 H   0  0  0  0  0  0  0  0  0  0  0  0
  -13.0480  -27.8587   12.9829 H   0  0  0  0  0  0  0  0  0  0  0  0
  -11.4185  -28.5133   13.0512 H   0  0  0  0  0  0  0  0  0  0  0  0
  -12.3743  -25.7852   14.0215 H   0  0  0  0  0  0  0  0  0  0  0  0
  -10.1768  -26.4436   11.9974 H   0  0  0  0  0  0  0  0  0  0  0  0
  -10.3338  -23.9984   11.4997 H   0  0  0  0  0  0  0  0  0  0  0  0
  -11.4799  -23.7888   12.8200 H   0  0  0  0  0  0  0  0  0  0  0  0
   -9.8101  -24.2761   13.1610 H   0  0  0  0  0  0  0  0  0  0  0  0
  -11.7919  -26.4696   10.4100 H   0  0  0  0  0  0  0  0  0  0  0  0
  -15.1015  -25.8754    9.9063 H   0  0  0  0  0  0  0  0  0  0  0  0
  -13.8014  -27.0183    9.6349 H   0  0  0  0  0  0  0  0  0  0  0  0
  -12.2935  -26.5628    7.7586 H   0  0  0  0  0  0  0  0  0  0  0  0
  -11.3910  -24.9413    6.1056 H   0  0  0  0  0  0  0  0  0  0  0  0
  -12.0970  -22.5622    6.2505 H   0  0  0  0  0  0  0  0  0  0  0  0
  -14.5196  -23.3015    9.4952 H   0  0  0  0  0  0  0  0  0  0  0  0
   -9.5178  -26.7914   14.3523 H   0  0  0  0  0  0  0  0  0  0  0  0
  -10.3567  -25.4715   15.1591 H   0  0  0  0  0  0  0  0  0  0  0  0
  -10.3994  -28.4249   15.8411 H   0  0  0  0  0  0  0  0  0  0  0  0
  -10.4962  -27.0323   16.7835 H   0  0  0  0  0  0  0  0  0  0  0  0
  1  2  1  0
  2  3  1  0
  3  4  1  0
  3  5  1  0
  5  6  2  0
  5  7  1  0
  7  8  1  0
  8  9  1  0
  9 10  1  0
 10 11  1  0
 11 12  1  0
 11 13  1  0
 13 14  1  0
 14 15  2  0
 14 16  1  0
 16 17  1  0
 17 18  2  0
 18 19  1  0
 19 20  2  0
 20 21  1  0
 21 22  2  0
 10 23  1  0
 23 24  1  0
 24  7  1  0
 22 17  1  0
  1 25  1  0
  1 26  1  0
  1 27  1  0
  3 28  1  0
  4 29  1  0
  4 30  1  0
  4 31  1  0
  8 32  1  0
  8 33  1  0
  9 34  1  0
  9 35  1  0
 10 36  1  0
 11 37  1  0
 12 38  1  0
 12 39  1  0
 12 40  1  0
 13 41  1  0
 16 42  1  0
 16 43  1  0
 18 44  1  0
 19 45  1  0
 20 46  1  0
 22 47  1  0
 23 48  1  0
 23 49  1  0
 24 50  1  0
 24 51  1  0
M  END
>  <Energy>  (1099) 
122.83826817332427

>  <compound_id>  (1099) 
13935

>  <target_id>  (1099) 
1

>  <reference_id>  (1099) 
9

>  <inspiration_ids>  (1099) 
[9, 48]

>  <energy_score>  (1099) 
22.684979329005245

>  <distance_score>  (1099) 
1.9747102109465309

>  <path>  (1099) 
/opt/xchem-fragalysis-2/maxwin/BulkDock/SCRATCH/511014/C13935-P9/C13935-P9.minimised.mol

>  <scratch_subdir>  (1099) 
/opt/xchem-fragalysis-2/maxwin/BulkDock/SCRATCH/511014/C13935-P9

>  <fragmenstein_runtime>  (1099) 
7.1918675899505615

>  <fragmenstein_outcome>  (1099) 
too moved

>  <fragmenstein_mode>  (1099) 
expansion

>  <fragmenstein_error>  (1099) 


$$$$
C13935-P48
     RDKit          3D

 51 52  0  0  0  0  0  0  0  0999 V2000
  -13.0559  -27.2778   17.6147 C   0  0  0  0  0  0  0  0  0  0  0  0
  -13.7040  -28.9582   17.7975 S   0  0  0  0  0  0  0  0  0  0  0  0
  -13.6215  -29.5682   16.0546 C   0  0  0  0  0  0  0  0  0  0  0  0
  -14.6995  -28.8973   15.2155 C   0  0  0  0  0  0  0  0  0  0  0  0
  -12.1504  -29.5631   15.5381 C   0  0  0  0  0  0  0  0  0  0  0  0
  -11.4764  -30.5461   15.7379 O   0  0  0  0  0  0  0  0  0  0  0  0
  -11.8019  -28.2973   14.9657 N   0  0  0  0  0  0  0  0  0  0  0  0
  -12.0289  -28.3198   13.4614 C   0  0  0  0  0  0  0  0  0  0  0  0
  -12.5251  -26.9823   12.9047 C   0  0  0  0  0  0  0  0  0  0  0  0
  -11.6567  -25.8081   13.3518 C   0  0  0  0  0  0  0  0  0  0  0  0
  -11.4114  -24.7505   12.2437 C   0  0  0  0  0  0  0  0  0  0  0  0
  -10.4100  -23.6715   12.6478 C   0  0  0  0  0  0  0  0  0  0  0  0
  -11.0548  -25.2951   10.9433 N   0  0  0  0  0  0  0  0  0  0  0  0
  -10.1799  -26.3805   10.5805 C   0  0  0  0  0  0  0  0  0  0  0  0
   -9.4602  -27.0629   11.2531 O   0  0  0  0  0  0  0  0  0  0  0  0
  -10.1568  -26.6070    9.0585 C   0  0  0  0  0  0  0  0  0  0  0  0
  -11.4547  -26.3734    8.3321 C   0  0  0  0  0  0  0  0  0  0  0  0
  -11.5379  -25.4515    7.2865 C   0  0  0  0  0  0  0  0  0  0  0  0
  -12.7563  -25.2313    6.6544 C   0  0  0  0  0  0  0  0  0  0  0  0
  -13.8592  -25.9397    7.0946 C   0  0  0  0  0  0  0  0  0  0  0  0
  -13.8178  -26.8392    8.1000 N   0  0  0  0  0  0  0  0  0  0  0  0
  -12.6168  -27.0528    8.6794 C   0  0  0  0  0  0  0  0  0  0  0  0
  -10.4122  -26.2829   14.1000 C   0  0  0  0  0  0  0  0  0  0  0  0
  -10.4725  -27.7488   14.5364 C   0  0  0  0  0  0  0  0  0  0  0  0
  -11.9707  -27.2918   17.4932 H   0  0  0  0  0  0  0  0  0  0  0  0
  -13.2856  -26.7188   18.5252 H   0  0  0  0  0  0  0  0  0  0  0  0
  -13.5217  -26.7487   16.7811 H   0  0  0  0  0  0  0  0  0  0  0  0
  -13.9001  -30.6288   16.1120 H   0  0  0  0  0  0  0  0  0  0  0  0
  -15.6873  -29.0120   15.6771 H   0  0  0  0  0  0  0  0  0  0  0  0
  -14.7646  -29.3619   14.2267 H   0  0  0  0  0  0  0  0  0  0  0  0
  -14.5226  -27.8290   15.0709 H   0  0  0  0  0  0  0  0  0  0  0  0
  -11.2683  -28.8146   12.8313 H   0  0  0  0  0  0  0  0  0  0  0  0
  -12.8626  -29.0157   13.2961 H   0  0  0  0  0  0  0  0  0  0  0  0
  -13.5502  -26.8005   13.2511 H   0  0  0  0  0  0  0  0  0  0  0  0
  -12.6072  -27.0678   11.8184 H   0  0  0  0  0  0  0  0  0  0  0  0
  -12.2499  -25.2806   14.1158 H   0  0  0  0  0  0  0  0  0  0  0  0
  -12.3733  -24.2503   12.0690 H   0  0  0  0  0  0  0  0  0  0  0  0
   -9.3861  -24.0543   12.6639 H   0  0  0  0  0  0  0  0  0  0  0  0
  -10.4281  -22.8459   11.9289 H   0  0  0  0  0  0  0  0  0  0  0  0
  -10.6451  -23.2602   13.6335 H   0  0  0  0  0  0  0  0  0  0  0  0
  -11.4505  -24.8930   10.1003 H   0  0  0  0  0  0  0  0  0  0  0  0
   -9.8545  -27.6459    8.8748 H   0  0  0  0  0  0  0  0  0  0  0  0
   -9.3639  -25.9670    8.6535 H   0  0  0  0  0  0  0  0  0  0  0  0
  -10.6598  -24.8953    6.9609 H   0  0  0  0  0  0  0  0  0  0  0  0
  -12.8413  -24.5227    5.8379 H   0  0  0  0  0  0  0  0  0  0  0  0
  -14.8338  -25.8023    6.6346 H   0  0  0  0  0  0  0  0  0  0  0  0
  -12.6214  -27.8056    9.4633 H   0  0  0  0  0  0  0  0  0  0  0  0
   -9.4952  -26.1395   13.5231 H   0  0  0  0  0  0  0  0  0  0  0  0
  -10.2907  -25.6534   14.9911 H   0  0  0  0  0  0  0  0  0  0  0  0
   -9.8347  -28.4357   13.9528 H   0  0  0  0  0  0  0  0  0  0  0  0
   -9.9143  -27.7718   15.4873 H   0  0  0  0  0  0  0  0  0  0  0  0
  1  2  1  0
  2  3  1  0
  3  4  1  0
  3  5  1  0
  5  6  2  0
  5  7  1  0
  7  8  1  0
  8  9  1  0
  9 10  1  0
 10 11  1  0
 11 12  1  0
 11 13  1  0
 13 14  1  0
 14 15  2  0
 14 16  1  0
 16 17  1  0
 17 18  2  0
 18 19  1  0
 19 20  2  0
 20 21  1  0
 21 22  2  0
 10 23  1  0
 23 24  1  0
 24  7  1  0
 22 17  1  0
  1 25  1  0
  1 26  1  0
  1 27  1  0
  3 28  1  0
  4 29  1  0
  4 30  1  0
  4 31  1  0
  8 32  1  0
  8 33  1  0
  9 34  1  0
  9 35  1  0
 10 36  1  0
 11 37  1  0
 12 38  1  0
 12 39  1  0
 12 40  1  0
 13 41  1  0
 16 42  1  0
 16 43  1  0
 18 44  1  0
 19 45  1  0
 20 46  1  0
 22 47  1  0
 23 48  1  0
 23 49  1  0
 24 50  1  0
 24 51  1  0
M  END
>  <Energy>  (1100) 
126.49191519169965

>  <compound_id>  (1100) 
13935

>  <target_id>  (1100) 
1

>  <reference_id>  (1100) 
48

>  <inspiration_ids>  (1100) 
[9, 48]

>  <energy_score>  (1100) 
26.338626347379545

>  <distance_score>  (1100) 
2.2047915068685064

>  <path>  (1100) 
/opt/xchem-fragalysis-2/maxwin/BulkDock/SCRATCH/511014/C13935-P48/C13935-P48.minimised.mol

>  <scratch_subdir>  (1100) 
/opt/xchem-fragalysis-2/maxwin/BulkDock/SCRATCH/511014/C13935-P48

>  <fragmenstein_runtime>  (1100) 
7.030379056930542

>  <fragmenstein_outcome>  (1100) 
too moved

>  <fragmenstein_mode>  (1100) 
expansion

>  <fragmenstein_error>  (1100) 


$$$$
C13936-P9
     RDKit          3D

 49 50  0  0  0  0  0  0  0  0999 V2000
  -10.5113  -29.3856   10.6936 C   0  0  0  0  0  0  0  0  0  0  0  0
   -9.6290  -28.3586   11.3724 C   0  0  0  0  0  0  0  0  0  0  0  0
   -8.4415  -28.4118   11.2380 O   0  0  0  0  0  0  0  0  0  0  0  0
  -10.4457  -27.4538   12.1237 N   0  0  0  0  0  0  0  0  0  0  0  0
  -10.1005  -26.2632   12.8798 C   0  0  0  0  0  0  0  0  0  0  0  0
   -9.5014  -25.2028   11.9584 C   0  0  0  0  0  0  0  0  0  0  0  0
  -11.2911  -25.7045   13.6915 C   0  0  0  0  0  0  0  0  0  0  0  0
  -12.3897  -25.0958   12.8238 C   0  0  0  0  0  0  0  0  0  0  0  0
  -13.7592  -25.1609   13.5188 C   0  0  0  0  0  0  0  0  0  0  0  0
  -14.3097  -26.5531   13.7836 N   0  0  0  0  0  0  0  0  0  0  0  0
  -14.2931  -27.3138   12.6141 C   0  0  0  0  0  0  0  0  0  0  0  0
  -13.2090  -28.2702   12.0172 O   0  0  0  0  0  0  0  0  0  0  0  0
  -15.0615  -27.3424   11.8622 N   0  0  0  0  0  0  0  0  0  0  0  0
  -15.4638  -28.0250   10.5487 C   0  0  0  0  0  0  0  0  0  0  0  0
  -15.7171  -27.0529    9.3739 C   0  0  0  0  0  0  0  0  0  0  0  0
  -14.5583  -26.1633    9.0092 C   0  0  0  0  0  0  0  0  0  0  0  0
  -13.3444  -26.6800    8.5503 C   0  0  0  0  0  0  0  0  0  0  0  0
  -12.3505  -25.8124    8.1077 C   0  0  0  0  0  0  0  0  0  0  0  0
  -12.6029  -24.4508    8.1427 C   0  0  0  0  0  0  0  0  0  0  0  0
  -13.7416  -23.9064    8.6245 N   0  0  0  0  0  0  0  0  0  0  0  0
  -14.6903  -24.7758    9.0366 C   0  0  0  0  0  0  0  0  0  0  0  0
  -13.3562  -26.4554   14.9437 C   0  0  0  0  0  0  0  0  0  0  0  0
  -11.8825  -26.7427   14.6393 C   0  0  0  0  0  0  0  0  0  0  0  0
   -9.8927  -30.0626   10.0968 H   0  0  0  0  0  0  0  0  0  0  0  0
  -11.0449  -29.9739   11.4451 H   0  0  0  0  0  0  0  0  0  0  0  0
  -11.2209  -28.8896   10.0258 H   0  0  0  0  0  0  0  0  0  0  0  0
  -11.4338  -27.6618   11.9369 H   0  0  0  0  0  0  0  0  0  0  0  0
   -9.3166  -26.5747   13.5810 H   0  0  0  0  0  0  0  0  0  0  0  0
   -9.3037  -24.2769   12.5061 H   0  0  0  0  0  0  0  0  0  0  0  0
   -8.5558  -25.5489   11.5275 H   0  0  0  0  0  0  0  0  0  0  0  0
  -10.1721  -24.9758   11.1246 H   0  0  0  0  0  0  0  0  0  0  0  0
  -10.8994  -24.8912   14.3176 H   0  0  0  0  0  0  0  0  0  0  0  0
  -12.4491  -25.5969   11.8512 H   0  0  0  0  0  0  0  0  0  0  0  0
  -12.1492  -24.0485   12.6030 H   0  0  0  0  0  0  0  0  0  0  0  0
  -13.9018  -24.4145   14.3184 H   0  0  0  0  0  0  0  0  0  0  0  0
  -14.4568  -24.7674   12.7596 H   0  0  0  0  0  0  0  0  0  0  0  0
  -15.9564  -27.1489   11.4895 H   0  0  0  0  0  0  0  0  0  0  0  0
  -16.3461  -28.6671   10.7259 H   0  0  0  0  0  0  0  0  0  0  0  0
  -14.6556  -28.7134   10.2740 H   0  0  0  0  0  0  0  0  0  0  0  0
  -16.5932  -26.4344    9.6096 H   0  0  0  0  0  0  0  0  0  0  0  0
  -15.9928  -27.6359    8.4860 H   0  0  0  0  0  0  0  0  0  0  0  0
  -13.1733  -27.7525    8.5057 H   0  0  0  0  0  0  0  0  0  0  0  0
  -11.4064  -26.1854    7.7245 H   0  0  0  0  0  0  0  0  0  0  0  0
  -11.8735  -23.7412    7.7625 H   0  0  0  0  0  0  0  0  0  0  0  0
  -15.6073  -24.3033    9.3791 H   0  0  0  0  0  0  0  0  0  0  0  0
  -13.6661  -27.3316   15.5365 H   0  0  0  0  0  0  0  0  0  0  0  0
  -13.5369  -25.6496   15.6745 H   0  0  0  0  0  0  0  0  0  0  0  0
  -11.8052  -27.7562   14.2313 H   0  0  0  0  0  0  0  0  0  0  0  0
  -11.3095  -26.7557   15.5749 H   0  0  0  0  0  0  0  0  0  0  0  0
  1  2  1  0
  2  3  2  0
  2  4  1  0
  4  5  1  0
  5  6  1  0
  5  7  1  0
  7  8  1  0
  8  9  1  0
  9 10  1  0
 10 11  1  0
 11 12  2  0
 11 13  1  0
 13 14  1  0
 14 15  1  0
 15 16  1  0
 16 17  2  0
 17 18  1  0
 18 19  2  0
 19 20  1  0
 20 21  2  0
 10 22  1  0
 22 23  1  0
 23  7  1  0
 21 16  1  0
  1 24  1  0
  1 25  1  0
  1 26  1  0
  4 27  1  0
  5 28  1  0
  6 29  1  0
  6 30  1  0
  6 31  1  0
  7 32  1  0
  8 33  1  0
  8 34  1  0
  9 35  1  0
  9 36  1  0
 13 37  1  0
 14 38  1  0
 14 39  1  0
 15 40  1  0
 15 41  1  0
 17 42  1  0
 18 43  1  0
 19 44  1  0
 21 45  1  0
 22 46  1  0
 22 47  1  0
 23 48  1  0
 23 49  1  0
M  END
>  <Energy>  (1101) 
205.76441772403203

>  <compound_id>  (1101) 
13936

>  <target_id>  (1101) 
1

>  <reference_id>  (1101) 
9

>  <inspiration_ids>  (1101) 
[9, 48]

>  <energy_score>  (1101) 
241.0837639052515

>  <distance_score>  (1101) 
3.0998683127793267

>  <path>  (1101) 
/opt/xchem-fragalysis-2/maxwin/BulkDock/SCRATCH/511014/C13936-P9/C13936-P9.minimised.mol

>  <scratch_subdir>  (1101) 
/opt/xchem-fragalysis-2/maxwin/BulkDock/SCRATCH/511014/C13936-P9

>  <fragmenstein_runtime>  (1101) 
8.330348253250122

>  <fragmenstein_outcome>  (1101) 
too moved

>  <fragmenstein_mode>  (1101) 
expansion

>  <fragmenstein_error>  (1101) 


$$$$
C13936-P48
     RDKit          3D

 49 50  0  0  0  0  0  0  0  0999 V2000
  -15.3638  -24.0172   13.5787 C   0  0  0  0  0  0  0  0  0  0  0  0
  -14.3184  -24.5949   12.6466 C   0  0  0  0  0  0  0  0  0  0  0  0
  -14.6527  -25.2393   11.6960 O   0  0  0  0  0  0  0  0  0  0  0  0
  -13.0141  -24.2662   13.1446 N   0  0  0  0  0  0  0  0  0  0  0  0
  -11.6873  -24.5307   12.6002 C   0  0  0  0  0  0  0  0  0  0  0  0
  -10.6867  -23.5423   13.1996 C   0  0  0  0  0  0  0  0  0  0  0  0
  -11.3167  -26.0238   12.8198 C   0  0  0  0  0  0  0  0  0  0  0  0
  -11.9049  -26.8802   11.7018 C   0  0  0  0  0  0  0  0  0  0  0  0
  -11.1032  -28.1608   11.4621 C   0  0  0  0  0  0  0  0  0  0  0  0
   -9.6436  -28.0116   11.0481 N   0  0  0  0  0  0  0  0  0  0  0  0
   -9.5351  -27.1059    9.8954 C   0  0  0  0  0  0  0  0  0  0  0  0
   -9.3792  -25.9426    9.8578 O   0  0  0  0  0  0  0  0  0  0  0  0
   -9.6898  -28.0700    8.8224 N   0  0  0  0  0  0  0  0  0  0  0  0
   -9.7940  -27.8851    7.3941 C   0  0  0  0  0  0  0  0  0  0  0  0
  -10.3827  -26.5354    6.9516 C   0  0  0  0  0  0  0  0  0  0  0  0
  -11.7463  -26.1579    7.4800 C   0  0  0  0  0  0  0  0  0  0  0  0
  -12.7121  -27.0828    7.8773 C   0  0  0  0  0  0  0  0  0  0  0  0
  -13.9348  -26.6341    8.3684 C   0  0  0  0  0  0  0  0  0  0  0  0
  -14.1657  -25.2693    8.4269 C   0  0  0  0  0  0  0  0  0  0  0  0
  -13.2828  -24.3400    8.0121 N   0  0  0  0  0  0  0  0  0  0  0  0
  -12.0980  -24.8081    7.5532 C   0  0  0  0  0  0  0  0  0  0  0  0
   -9.4764  -27.7440   12.5159 C   0  0  0  0  0  0  0  0  0  0  0  0
   -9.8228  -26.3116   12.9450 C   0  0  0  0  0  0  0  0  0  0  0  0
  -16.3569  -24.1400   13.1366 H   0  0  0  0  0  0  0  0  0  0  0  0
  -15.1882  -22.9491   13.7331 H   0  0  0  0  0  0  0  0  0  0  0  0
  -15.3342  -24.5428   14.5372 H   0  0  0  0  0  0  0  0  0  0  0  0
  -13.1108  -23.7715   14.0195 H   0  0  0  0  0  0  0  0  0  0  0  0
  -11.7520  -24.3172   11.5264 H   0  0  0  0  0  0  0  0  0  0  0  0
  -10.5040  -23.7520   14.2580 H   0  0  0  0  0  0  0  0  0  0  0  0
   -9.7287  -23.5659   12.6739 H   0  0  0  0  0  0  0  0  0  0  0  0
  -11.0601  -22.5163   13.1194 H   0  0  0  0  0  0  0  0  0  0  0  0
  -11.7724  -26.3646   13.7613 H   0  0  0  0  0  0  0  0  0  0  0  0
  -11.9518  -26.3141   10.7661 H   0  0  0  0  0  0  0  0  0  0  0  0
  -12.9376  -27.1548   11.9442 H   0  0  0  0  0  0  0  0  0  0  0  0
  -11.5724  -28.6026   10.5683 H   0  0  0  0  0  0  0  0  0  0  0  0
  -11.3042  -28.9558   12.2006 H   0  0  0  0  0  0  0  0  0  0  0  0
   -9.7210  -29.0002    9.2158 H   0  0  0  0  0  0  0  0  0  0  0  0
  -10.3910  -28.7168    7.0053 H   0  0  0  0  0  0  0  0  0  0  0  0
   -8.7832  -27.9923    6.9863 H   0  0  0  0  0  0  0  0  0  0  0  0
  -10.4393  -26.5302    5.8557 H   0  0  0  0  0  0  0  0  0  0  0  0
   -9.6690  -25.7490    7.2291 H   0  0  0  0  0  0  0  0  0  0  0  0
  -12.5237  -28.1501    7.8325 H   0  0  0  0  0  0  0  0  0  0  0  0
  -14.6892  -27.3297    8.7170 H   0  0  0  0  0  0  0  0  0  0  0  0
  -15.0962  -24.8802    8.8298 H   0  0  0  0  0  0  0  0  0  0  0  0
  -11.4034  -24.0350    7.2318 H   0  0  0  0  0  0  0  0  0  0  0  0
   -9.7870  -28.5353   13.2176 H   0  0  0  0  0  0  0  0  0  0  0  0
   -8.3804  -27.7892   12.6167 H   0  0  0  0  0  0  0  0  0  0  0  0
   -9.2332  -25.6214   12.3341 H   0  0  0  0  0  0  0  0  0  0  0  0
   -9.5067  -26.1569   13.9832 H   0  0  0  0  0  0  0  0  0  0  0  0
  1  2  1  0
  2  3  2  0
  2  4  1  0
  4  5  1  0
  5  6  1  0
  5  7  1  0
  7  8  1  0
  8  9  1  0
  9 10  1  0
 10 11  1  0
 11 12  2  0
 11 13  1  0
 13 14  1  0
 14 15  1  0
 15 16  1  0
 16 17  2  0
 17 18  1  0
 18 19  2  0
 19 20  1  0
 20 21  2  0
 10 22  1  0
 22 23  1  0
 23  7  1  0
 21 16  1  0
  1 24  1  0
  1 25  1  0
  1 26  1  0
  4 27  1  0
  5 28  1  0
  6 29  1  0
  6 30  1  0
  6 31  1  0
  7 32  1  0
  8 33  1  0
  8 34  1  0
  9 35  1  0
  9 36  1  0
 13 37  1  0
 14 38  1  0
 14 39  1  0
 15 40  1  0
 15 41  1  0
 17 42  1  0
 18 43  1  0
 19 44  1  0
 21 45  1  0
 22 46  1  0
 22 47  1  0
 23 48  1  0
 23 49  1  0
M  END
>  <Energy>  (1102) 
18.153205106162954

>  <compound_id>  (1102) 
13936

>  <target_id>  (1102) 
1

>  <reference_id>  (1102) 
48

>  <inspiration_ids>  (1102) 
[9, 48]

>  <energy_score>  (1102) 
53.47255128738309

>  <distance_score>  (1102) 
4.4365664110002445

>  <path>  (1102) 
/opt/xchem-fragalysis-2/maxwin/BulkDock/SCRATCH/511014/C13936-P48/C13936-P48.minimised.mol

>  <scratch_subdir>  (1102) 
/opt/xchem-fragalysis-2/maxwin/BulkDock/SCRATCH/511014/C13936-P48

>  <fragmenstein_runtime>  (1102) 
7.899169445037842

>  <fragmenstein_outcome>  (1102) 
too moved

>  <fragmenstein_mode>  (1102) 
expansion

>  <fragmenstein_error>  (1102) 


$$$$
C13937-P9
     RDKit          3D

 50 51  0  0  0  0  0  0  0  0999 V2000
  -13.3314  -28.7906   18.0827 C   0  0  0  0  0  0  0  0  0  0  0  0
  -14.6874  -28.5534   17.4243 C   0  0  0  0  0  0  0  0  0  0  0  0
  -15.7959  -29.2288   18.2311 C   0  0  0  0  0  0  0  0  0  0  0  0
  -14.6858  -29.0376   15.9581 C   0  0  0  0  0  0  0  0  0  0  0  0
  -15.4695  -29.8652   15.5764 O   0  0  0  0  0  0  0  0  0  0  0  0
  -13.6404  -28.3552   15.2592 N   0  0  0  0  0  0  0  0  0  0  0  0
  -14.1709  -27.0598   14.6618 C   0  0  0  0  0  0  0  0  0  0  0  0
  -13.1170  -25.9529   14.5123 C   0  0  0  0  0  0  0  0  0  0  0  0
  -12.2110  -26.2604   13.3267 C   0  0  0  0  0  0  0  0  0  0  0  0
  -12.9008  -25.9737   11.9695 C   0  0  0  0  0  0  0  0  0  0  0  0
  -13.2771  -24.5014   11.8088 C   0  0  0  0  0  0  0  0  0  0  0  0
  -12.0736  -26.3691   10.8513 N   0  0  0  0  0  0  0  0  0  0  0  0
  -10.8498  -25.8145   10.3414 C   0  0  0  0  0  0  0  0  0  0  0  0
  -10.1584  -24.9303   10.7594 O   0  0  0  0  0  0  0  0  0  0  0  0
  -10.4701  -26.5054    9.0209 C   0  0  0  0  0  0  0  0  0  0  0  0
  -11.5979  -26.4840    8.0196 C   0  0  0  0  0  0  0  0  0  0  0  0
  -12.2271  -27.6614    7.6107 C   0  0  0  0  0  0  0  0  0  0  0  0
  -13.3352  -27.5881    6.7750 C   0  0  0  0  0  0  0  0  0  0  0  0
  -13.7755  -26.3388    6.3703 C   0  0  0  0  0  0  0  0  0  0  0  0
  -13.1855  -25.1826    6.7312 N   0  0  0  0  0  0  0  0  0  0  0  0
  -12.1026  -25.2795    7.5326 C   0  0  0  0  0  0  0  0  0  0  0  0
  -11.8534  -27.7349   13.5006 C   0  0  0  0  0  0  0  0  0  0  0  0
  -13.1149  -28.5346   13.8603 C   0  0  0  0  0  0  0  0  0  0  0  0
  -13.3152  -28.3627   19.0862 H   0  0  0  0  0  0  0  0  0  0  0  0
  -13.1100  -29.8605   18.1557 H   0  0  0  0  0  0  0  0  0  0  0  0
  -12.5147  -28.3186   17.5273 H   0  0  0  0  0  0  0  0  0  0  0  0
  -14.8930  -27.4769   17.4283 H   0  0  0  0  0  0  0  0  0  0  0  0
  -15.6444  -30.3123   18.2889 H   0  0  0  0  0  0  0  0  0  0  0  0
  -16.7749  -29.0537   17.7718 H   0  0  0  0  0  0  0  0  0  0  0  0
  -15.8313  -28.8341   19.2515 H   0  0  0  0  0  0  0  0  0  0  0  0
  -14.8456  -26.6611   15.4346 H   0  0  0  0  0  0  0  0  0  0  0  0
  -14.8820  -27.1684   13.8251 H   0  0  0  0  0  0  0  0  0  0  0  0
  -12.5150  -25.9160   15.4299 H   0  0  0  0  0  0  0  0  0  0  0  0
  -13.6018  -24.9775   14.4211 H   0  0  0  0  0  0  0  0  0  0  0  0
  -11.2962  -25.6579   13.3926 H   0  0  0  0  0  0  0  0  0  0  0  0
  -13.8165  -26.5659   11.8690 H   0  0  0  0  0  0  0  0  0  0  0  0
  -12.4264  -23.8554   12.0455 H   0  0  0  0  0  0  0  0  0  0  0  0
  -14.1077  -24.2230   12.4636 H   0  0  0  0  0  0  0  0  0  0  0  0
  -13.5911  -24.2847   10.7813 H   0  0  0  0  0  0  0  0  0  0  0  0
  -12.3381  -27.1653   10.2819 H   0  0  0  0  0  0  0  0  0  0  0  0
  -10.1612  -27.5317    9.2524 H   0  0  0  0  0  0  0  0  0  0  0  0
   -9.5982  -26.0000    8.5892 H   0  0  0  0  0  0  0  0  0  0  0  0
  -11.8708  -28.6329    7.9432 H   0  0  0  0  0  0  0  0  0  0  0  0
  -13.8461  -28.4848    6.4418 H   0  0  0  0  0  0  0  0  0  0  0  0
  -14.6374  -26.2338    5.7174 H   0  0  0  0  0  0  0  0  0  0  0  0
  -11.6522  -24.3255    7.7917 H   0  0  0  0  0  0  0  0  0  0  0  0
  -11.1210  -27.8393   14.3121 H   0  0  0  0  0  0  0  0  0  0  0  0
  -11.3853  -28.1499   12.6021 H   0  0  0  0  0  0  0  0  0  0  0  0
  -13.8750  -28.6180   13.0655 H   0  0  0  0  0  0  0  0  0  0  0  0
  -12.7667  -29.5793   13.9029 H   0  0  0  0  0  0  0  0  0  0  0  0
  1  2  1  0
  2  3  1  0
  2  4  1  0
  4  5  2  0
  4  6  1  0
  6  7  1  0
  7  8  1  0
  8  9  1  0
  9 10  1  0
 10 11  1  0
 10 12  1  0
 12 13  1  0
 13 14  2  0
 13 15  1  0
 15 16  1  0
 16 17  2  0
 17 18  1  0
 18 19  2  0
 19 20  1  0
 20 21  2  0
  9 22  1  0
 22 23  1  0
 23  6  1  0
 21 16  1  0
  1 24  1  0
  1 25  1  0
  1 26  1  0
  2 27  1  0
  3 28  1  0
  3 29  1  0
  3 30  1  0
  7 31  1  0
  7 32  1  0
  8 33  1  0
  8 34  1  0
  9 35  1  0
 10 36  1  0
 11 37  1  0
 11 38  1  0
 11 39  1  0
 12 40  1  0
 15 41  1  0
 15 42  1  0
 17 43  1  0
 18 44  1  0
 19 45  1  0
 21 46  1  0
 22 47  1  0
 22 48  1  0
 23 49  1  0
 23 50  1  0
M  END
>  <Energy>  (1103) 
87.037635793443897

>  <compound_id>  (1103) 
13937

>  <target_id>  (1103) 
1

>  <reference_id>  (1103) 
9

>  <inspiration_ids>  (1103) 
[9, 48]

>  <energy_score>  (1103) 
38.72434495862899

>  <distance_score>  (1103) 
3.1042576602564975

>  <path>  (1103) 
/opt/xchem-fragalysis-2/maxwin/BulkDock/SCRATCH/511014/C13937-P9/C13937-P9.minimised.mol

>  <scratch_subdir>  (1103) 
/opt/xchem-fragalysis-2/maxwin/BulkDock/SCRATCH/511014/C13937-P9

>  <fragmenstein_runtime>  (1103) 
9.320503234863281

>  <fragmenstein_outcome>  (1103) 
too moved

>  <fragmenstein_mode>  (1103) 
expansion

>  <fragmenstein_error>  (1103) 


$$$$
C13937-P48
     RDKit          3D

 50 51  0  0  0  0  0  0  0  0999 V2000
  -14.3765  -28.7877   17.8643 C   0  0  0  0  0  0  0  0  0  0  0  0
  -13.1457  -28.0501   17.3295 C   0  0  0  0  0  0  0  0  0  0  0  0
  -13.5271  -26.6109   16.9965 C   0  0  0  0  0  0  0  0  0  0  0  0
  -12.4488  -28.8978   16.2246 C   0  0  0  0  0  0  0  0  0  0  0  0
  -12.5635  -30.0971   16.2611 O   0  0  0  0  0  0  0  0  0  0  0  0
  -11.6758  -28.0680   15.3609 N   0  0  0  0  0  0  0  0  0  0  0  0
  -12.4979  -27.6683   14.1431 C   0  0  0  0  0  0  0  0  0  0  0  0
  -12.1925  -26.2665   13.6001 C   0  0  0  0  0  0  0  0  0  0  0  0
  -10.6961  -25.9802   13.5993 C   0  0  0  0  0  0  0  0  0  0  0  0
  -10.2011  -24.9805   12.5281 C   0  0  0  0  0  0  0  0  0  0  0  0
  -10.7954  -23.5884   12.7219 C   0  0  0  0  0  0  0  0  0  0  0  0
  -10.3958  -25.4499   11.1649 N   0  0  0  0  0  0  0  0  0  0  0  0
  -11.5615  -25.4347   10.3177 C   0  0  0  0  0  0  0  0  0  0  0  0
  -12.6461  -24.9606   10.4912 O   0  0  0  0  0  0  0  0  0  0  0  0
  -11.2285  -26.1750    9.0111 C   0  0  0  0  0  0  0  0  0  0  0  0
  -12.2847  -25.9843    7.9602 C   0  0  0  0  0  0  0  0  0  0  0  0
  -13.3481  -26.8794    7.8342 C   0  0  0  0  0  0  0  0  0  0  0  0
  -14.3587  -26.6120    6.9202 C   0  0  0  0  0  0  0  0  0  0  0  0
  -14.2706  -25.4564    6.1615 C   0  0  0  0  0  0  0  0  0  0  0  0
  -13.2568  -24.5715    6.2499 N   0  0  0  0  0  0  0  0  0  0  0  0
  -12.2896  -24.8516    7.1498 C   0  0  0  0  0  0  0  0  0  0  0  0
   -9.9413  -27.3017   13.5529 C   0  0  0  0  0  0  0  0  0  0  0  0
  -10.6772  -28.4210   14.3005 C   0  0  0  0  0  0  0  0  0  0  0  0
  -14.8532  -28.2245   18.6733 H   0  0  0  0  0  0  0  0  0  0  0  0
  -15.1168  -28.9392   17.0710 H   0  0  0  0  0  0  0  0  0  0  0  0
  -14.1082  -29.7729   18.2604 H   0  0  0  0  0  0  0  0  0  0  0  0
  -12.4139  -28.0033   18.1461 H   0  0  0  0  0  0  0  0  0  0  0  0
  -13.9004  -26.0979   17.8904 H   0  0  0  0  0  0  0  0  0  0  0  0
  -14.3172  -26.5628   16.2414 H   0  0  0  0  0  0  0  0  0  0  0  0
  -12.6668  -26.0405   16.6362 H   0  0  0  0  0  0  0  0  0  0  0  0
  -12.6223  -28.4317   13.3531 H   0  0  0  0  0  0  0  0  0  0  0  0
  -13.5399  -27.6126   14.4907 H   0  0  0  0  0  0  0  0  0  0  0  0
  -12.6976  -25.5097   14.2125 H   0  0  0  0  0  0  0  0  0  0  0  0
  -12.6401  -26.1987   12.6086 H   0  0  0  0  0  0  0  0  0  0  0  0
  -10.4658  -25.5333   14.5787 H   0  0  0  0  0  0  0  0  0  0  0  0
   -9.1144  -24.8874   12.6303 H   0  0  0  0  0  0  0  0  0  0  0  0
  -10.4197  -22.8954   11.9624 H   0  0  0  0  0  0  0  0  0  0  0  0
  -10.5184  -23.1883   13.7024 H   0  0  0  0  0  0  0  0  0  0  0  0
  -11.8876  -23.5928   12.6554 H   0  0  0  0  0  0  0  0  0  0  0  0
   -9.6759  -26.0171   10.7277 H   0  0  0  0  0  0  0  0  0  0  0  0
  -11.1184  -27.2419    9.2418 H   0  0  0  0  0  0  0  0  0  0  0  0
  -10.2643  -25.8288    8.6205 H   0  0  0  0  0  0  0  0  0  0  0  0
  -13.4104  -27.7650    8.4601 H   0  0  0  0  0  0  0  0  0  0  0  0
  -15.2034  -27.2819    6.8071 H   0  0  0  0  0  0  0  0  0  0  0  0
  -15.0401  -25.2048    5.4373 H   0  0  0  0  0  0  0  0  0  0  0  0
  -11.5002  -24.1063    7.2098 H   0  0  0  0  0  0  0  0  0  0  0  0
   -8.9425  -27.1614   13.9842 H   0  0  0  0  0  0  0  0  0  0  0  0
   -9.7781  -27.6388   12.5225 H   0  0  0  0  0  0  0  0  0  0  0  0
  -10.9612  -29.2809   13.6681 H   0  0  0  0  0  0  0  0  0  0  0  0
   -9.8921  -28.9067   14.9037 H   0  0  0  0  0  0  0  0  0  0  0  0
  1  2  1  0
  2  3  1  0
  2  4  1  0
  4  5  2  0
  4  6  1  0
  6  7  1  0
  7  8  1  0
  8  9  1  0
  9 10  1  0
 10 11  1  0
 10 12  1  0
 12 13  1  0
 13 14  2  0
 13 15  1  0
 15 16  1  0
 16 17  2  0
 17 18  1  0
 18 19  2  0
 19 20  1  0
 20 21  2  0
  9 22  1  0
 22 23  1  0
 23  6  1  0
 21 16  1  0
  1 24  1  0
  1 25  1  0
  1 26  1  0
  2 27  1  0
  3 28  1  0
  3 29  1  0
  3 30  1  0
  7 31  1  0
  7 32  1  0
  8 33  1  0
  8 34  1  0
  9 35  1  0
 10 36  1  0
 11 37  1  0
 11 38  1  0
 11 39  1  0
 12 40  1  0
 15 41  1  0
 15 42  1  0
 17 43  1  0
 18 44  1  0
 19 45  1  0
 21 46  1  0
 22 47  1  0
 22 48  1  0
 23 49  1  0
 23 50  1  0
M  END
>  <Energy>  (1104) 
96.851843748130179

>  <compound_id>  (1104) 
13937

>  <target_id>  (1104) 
1

>  <reference_id>  (1104) 
48

>  <inspiration_ids>  (1104) 
[9, 48]

>  <energy_score>  (1104) 
48.53855291331634

>  <distance_score>  (1104) 
2.515909636551189

>  <path>  (1104) 
/opt/xchem-fragalysis-2/maxwin/BulkDock/SCRATCH/511014/C13937-P48/C13937-P48.minimised.mol

>  <scratch_subdir>  (1104) 
/opt/xchem-fragalysis-2/maxwin/BulkDock/SCRATCH/511014/C13937-P48

>  <fragmenstein_runtime>  (1104) 
7.652080059051514

>  <fragmenstein_outcome>  (1104) 
too moved

>  <fragmenstein_mode>  (1104) 
expansion

>  <fragmenstein_error>  (1104) 


$$$$
C13939-P9
     RDKit          3D

 48 49  0  0  0  0  0  0  0  0999 V2000
  -15.7128  -28.8653   17.3088 C   0  0  0  0  0  0  0  0  0  0  0  0
  -14.6891  -29.3811   18.1481 O   0  0  0  0  0  0  0  0  0  0  0  0
  -13.3970  -28.9446   17.7522 C   0  0  0  0  0  0  0  0  0  0  0  0
  -12.8431  -29.4947   16.4039 C   0  0  0  0  0  0  0  0  0  0  0  0
  -13.1850  -30.5659   15.9767 O   0  0  0  0  0  0  0  0  0  0  0  0
  -11.9148  -28.5371   15.8805 N   0  0  0  0  0  0  0  0  0  0  0  0
  -12.6357  -27.5489   14.9812 C   0  0  0  0  0  0  0  0  0  0  0  0
  -12.0108  -26.1534   14.9824 C   0  0  0  0  0  0  0  0  0  0  0  0
  -10.6241  -26.1269   14.3562 C   0  0  0  0  0  0  0  0  0  0  0  0
  -10.5335  -25.6476   12.8890 C   0  0  0  0  0  0  0  0  0  0  0  0
  -10.8757  -24.1614   12.7426 C   0  0  0  0  0  0  0  0  0  0  0  0
  -11.2769  -26.4112   11.9089 N   0  0  0  0  0  0  0  0  0  0  0  0
  -12.6936  -26.5388   11.6878 C   0  0  0  0  0  0  0  0  0  0  0  0
  -13.6238  -26.1090   12.3079 O   0  0  0  0  0  0  0  0  0  0  0  0
  -12.9514  -27.2775   10.3720 C   0  0  0  0  0  0  0  0  0  0  0  0
  -12.7451  -26.3485    9.2055 C   0  0  0  0  0  0  0  0  0  0  0  0
  -11.7789  -26.5976    8.2301 C   0  0  0  0  0  0  0  0  0  0  0  0
  -11.5808  -25.6696    7.2129 C   0  0  0  0  0  0  0  0  0  0  0  0
  -12.3585  -24.5225    7.2033 C   0  0  0  0  0  0  0  0  0  0  0  0
  -13.3163  -24.2549    8.1171 N   0  0  0  0  0  0  0  0  0  0  0  0
  -13.4896  -25.1735    9.0920 C   0  0  0  0  0  0  0  0  0  0  0  0
   -9.9642  -27.4814   14.5949 C   0  0  0  0  0  0  0  0  0  0  0  0
  -10.9908  -28.6115   14.6948 C   0  0  0  0  0  0  0  0  0  0  0  0
  -16.6766  -29.2078   17.6950 H   0  0  0  0  0  0  0  0  0  0  0  0
  -15.7040  -27.7710   17.3201 H   0  0  0  0  0  0  0  0  0  0  0  0
  -15.6024  -29.2321   16.2844 H   0  0  0  0  0  0  0  0  0  0  0  0
  -13.3682  -27.8486   17.7682 H   0  0  0  0  0  0  0  0  0  0  0  0
  -12.7060  -29.2834   18.5303 H   0  0  0  0  0  0  0  0  0  0  0  0
  -13.6071  -27.3912   15.4777 H   0  0  0  0  0  0  0  0  0  0  0  0
  -12.9843  -27.9387   14.0126 H   0  0  0  0  0  0  0  0  0  0  0  0
  -12.6885  -25.4288   14.5254 H   0  0  0  0  0  0  0  0  0  0  0  0
  -11.9117  -25.8548   16.0348 H   0  0  0  0  0  0  0  0  0  0  0  0
  -10.0333  -25.3920   14.9195 H   0  0  0  0  0  0  0  0  0  0  0  0
   -9.4848  -25.7485   12.5790 H   0  0  0  0  0  0  0  0  0  0  0  0
  -10.2572  -23.5494   13.4073 H   0  0  0  0  0  0  0  0  0  0  0  0
  -10.6921  -23.8262   11.7166 H   0  0  0  0  0  0  0  0  0  0  0  0
  -11.9267  -23.9557   12.9661 H   0  0  0  0  0  0  0  0  0  0  0  0
  -10.7831  -26.9775   11.2267 H   0  0  0  0  0  0  0  0  0  0  0  0
  -13.9819  -27.6522   10.3697 H   0  0  0  0  0  0  0  0  0  0  0  0
  -12.3022  -28.1587   10.3092 H   0  0  0  0  0  0  0  0  0  0  0  0
  -11.1674  -27.4952    8.2579 H   0  0  0  0  0  0  0  0  0  0  0  0
  -10.8216  -25.8214    6.4535 H   0  0  0  0  0  0  0  0  0  0  0  0
  -12.2176  -23.7621    6.4405 H   0  0  0  0  0  0  0  0  0  0  0  0
  -14.2624  -24.9220    9.8160 H   0  0  0  0  0  0  0  0  0  0  0  0
   -9.2220  -27.7120   13.8225 H   0  0  0  0  0  0  0  0  0  0  0  0
   -9.4142  -27.4367   15.5452 H   0  0  0  0  0  0  0  0  0  0  0  0
  -11.4249  -28.9458   13.7372 H   0  0  0  0  0  0  0  0  0  0  0  0
  -10.3921  -29.5015   14.9489 H   0  0  0  0  0  0  0  0  0  0  0  0
  1  2  1  0
  2  3  1  0
  3  4  1  0
  4  5  2  0
  4  6  1  0
  6  7  1  0
  7  8  1  0
  8  9  1  0
  9 10  1  0
 10 11  1  0
 10 12  1  0
 12 13  1  0
 13 14  2  0
 13 15  1  0
 15 16  1  0
 16 17  2  0
 17 18  1  0
 18 19  2  0
 19 20  1  0
 20 21  2  0
  9 22  1  0
 22 23  1  0
 23  6  1  0
 21 16  1  0
  1 24  1  0
  1 25  1  0
  1 26  1  0
  3 27  1  0
  3 28  1  0
  7 29  1  0
  7 30  1  0
  8 31  1  0
  8 32  1  0
  9 33  1  0
 10 34  1  0
 11 35  1  0
 11 36  1  0
 11 37  1  0
 12 38  1  0
 15 39  1  0
 15 40  1  0
 17 41  1  0
 18 42  1  0
 19 43  1  0
 21 44  1  0
 22 45  1  0
 22 46  1  0
 23 47  1  0
 23 48  1  0
M  END
>  <Energy>  (1105) 
124.25724448462161

>  <compound_id>  (1105) 
13939

>  <target_id>  (1105) 
1

>  <reference_id>  (1105) 
9

>  <inspiration_ids>  (1105) 
[9, 48]

>  <energy_score>  (1105) 
33.74935034315271

>  <distance_score>  (1105) 
2.3504992067208783

>  <path>  (1105) 
/opt/xchem-fragalysis-2/maxwin/BulkDock/SCRATCH/511014/C13939-P9/C13939-P9.minimised.mol

>  <scratch_subdir>  (1105) 
/opt/xchem-fragalysis-2/maxwin/BulkDock/SCRATCH/511014/C13939-P9

>  <fragmenstein_runtime>  (1105) 
6.15935492515564

>  <fragmenstein_outcome>  (1105) 
too moved

>  <fragmenstein_mode>  (1105) 
expansion

>  <fragmenstein_error>  (1105) 


$$$$
C13939-P48
     RDKit          3D

 48 49  0  0  0  0  0  0  0  0999 V2000
  -15.5090  -28.9827   17.2789 C   0  0  0  0  0  0  0  0  0  0  0  0
  -14.3904  -29.1857   18.1316 O   0  0  0  0  0  0  0  0  0  0  0  0
  -13.2150  -28.5690   17.6303 C   0  0  0  0  0  0  0  0  0  0  0  0
  -12.5816  -29.1990   16.3572 C   0  0  0  0  0  0  0  0  0  0  0  0
  -12.7347  -30.3186   16.0271 O   0  0  0  0  0  0  0  0  0  0  0  0
  -11.7560  -28.0898   15.7220 N   0  0  0  0  0  0  0  0  0  0  0  0
  -12.5752  -27.3037   14.7149 C   0  0  0  0  0  0  0  0  0  0  0  0
  -12.1695  -25.8322   14.6320 C   0  0  0  0  0  0  0  0  0  0  0  0
  -10.8005  -25.6402   14.0044 C   0  0  0  0  0  0  0  0  0  0  0  0
  -10.7763  -25.3030   12.5033 C   0  0  0  0  0  0  0  0  0  0  0  0
  -11.2842  -23.8901   12.2208 C   0  0  0  0  0  0  0  0  0  0  0  0
  -11.4680  -26.2083   11.6199 N   0  0  0  0  0  0  0  0  0  0  0  0
  -12.9863  -26.5226   11.4820 C   0  0  0  0  0  0  0  0  0  0  0  0
  -13.8963  -26.1533   12.1153 O   0  0  0  0  0  0  0  0  0  0  0  0
  -13.1388  -27.3759   10.2310 C   0  0  0  0  0  0  0  0  0  0  0  0
  -12.8006  -26.5404    9.0249 C   0  0  0  0  0  0  0  0  0  0  0  0
  -11.8740  -26.9731    8.0791 C   0  0  0  0  0  0  0  0  0  0  0  0
  -11.5494  -26.1365    7.0183 C   0  0  0  0  0  0  0  0  0  0  0  0
  -12.1625  -24.8953    6.9397 C   0  0  0  0  0  0  0  0  0  0  0  0
  -13.0777  -24.4492    7.8251 N   0  0  0  0  0  0  0  0  0  0  0  0
  -13.3783  -25.2810    8.8422 C   0  0  0  0  0  0  0  0  0  0  0  0
   -9.9577  -26.8601   14.3586 C   0  0  0  0  0  0  0  0  0  0  0  0
  -10.8117  -28.1191   14.5456 C   0  0  0  0  0  0  0  0  0  0  0  0
  -16.3810  -29.4530   17.7414 H   0  0  0  0  0  0  0  0  0  0  0  0
  -15.7133  -27.9140   17.1612 H   0  0  0  0  0  0  0  0  0  0  0  0
  -15.3464  -29.4445   16.3010 H   0  0  0  0  0  0  0  0  0  0  0  0
  -13.4043  -27.4992   17.4855 H   0  0  0  0  0  0  0  0  0  0  0  0
  -12.4630  -28.6482   18.4204 H   0  0  0  0  0  0  0  0  0  0  0  0
  -13.5733  -27.2613   15.1809 H   0  0  0  0  0  0  0  0  0  0  0  0
  -12.8420  -27.8196   13.7799 H   0  0  0  0  0  0  0  0  0  0  0  0
  -12.9422  -25.2203   14.1624 H   0  0  0  0  0  0  0  0  0  0  0  0
  -12.1040  -25.4913   15.6717 H   0  0  0  0  0  0  0  0  0  0  0  0
  -10.3281  -24.7791   14.4993 H   0  0  0  0  0  0  0  0  0  0  0  0
   -9.7302  -25.3255   12.1706 H   0  0  0  0  0  0  0  0  0  0  0  0
  -10.6935  -23.1457   12.7651 H   0  0  0  0  0  0  0  0  0  0  0  0
  -11.2138  -23.6607   11.1556 H   0  0  0  0  0  0  0  0  0  0  0  0
  -12.3328  -23.7653   12.5086 H   0  0  0  0  0  0  0  0  0  0  0  0
  -10.9439  -26.7645   10.9511 H   0  0  0  0  0  0  0  0  0  0  0  0
  -12.4937  -28.2576   10.3169 H   0  0  0  0  0  0  0  0  0  0  0  0
  -14.1728  -27.7312   10.1584 H   0  0  0  0  0  0  0  0  0  0  0  0
  -11.3949  -27.9448    8.1601 H   0  0  0  0  0  0  0  0  0  0  0  0
  -10.8200  -26.4331    6.2724 H   0  0  0  0  0  0  0  0  0  0  0  0
  -11.9171  -24.2033    6.1388 H   0  0  0  0  0  0  0  0  0  0  0  0
  -14.1189  -24.8891    9.5366 H   0  0  0  0  0  0  0  0  0  0  0  0
   -9.1741  -27.0438   13.6152 H   0  0  0  0  0  0  0  0  0  0  0  0
   -9.4416  -26.6626   15.3080 H   0  0  0  0  0  0  0  0  0  0  0  0
  -11.1610  -28.6057   13.6182 H   0  0  0  0  0  0  0  0  0  0  0  0
  -10.0908  -28.8816   14.8844 H   0  0  0  0  0  0  0  0  0  0  0  0
  1  2  1  0
  2  3  1  0
  3  4  1  0
  4  5  2  0
  4  6  1  0
  6  7  1  0
  7  8  1  0
  8  9  1  0
  9 10  1  0
 10 11  1  0
 10 12  1  0
 12 13  1  0
 13 14  2  0
 13 15  1  0
 15 16  1  0
 16 17  2  0
 17 18  1  0
 18 19  2  0
 19 20  1  0
 20 21  2  0
  9 22  1  0
 22 23  1  0
 23  6  1  0
 21 16  1  0
  1 24  1  0
  1 25  1  0
  1 26  1  0
  3 27  1  0
  3 28  1  0
  7 29  1  0
  7 30  1  0
  8 31  1  0
  8 32  1  0
  9 33  1  0
 10 34  1  0
 11 35  1  0
 11 36  1  0
 11 37  1  0
 12 38  1  0
 15 39  1  0
 15 40  1  0
 17 41  1  0
 18 42  1  0
 19 43  1  0
 21 44  1  0
 22 45  1  0
 22 46  1  0
 23 47  1  0
 23 48  1  0
M  END
>  <Energy>  (1106) 
146.84968820664562

>  <compound_id>  (1106) 
13939

>  <target_id>  (1106) 
1

>  <reference_id>  (1106) 
48

>  <inspiration_ids>  (1106) 
[9, 48]

>  <energy_score>  (1106) 
56.80813632357814

>  <distance_score>  (1106) 
2.12536628970678

>  <path>  (1106) 
/opt/xchem-fragalysis-2/maxwin/BulkDock/SCRATCH/511014/C13939-P48/C13939-P48.minimised.mol

>  <scratch_subdir>  (1106) 
/opt/xchem-fragalysis-2/maxwin/BulkDock/SCRATCH/511014/C13939-P48

>  <fragmenstein_runtime>  (1106) 
4.523253917694092

>  <fragmenstein_outcome>  (1106) 
too moved

>  <fragmenstein_mode>  (1106) 
expansion

>  <fragmenstein_error>  (1106) 


$$$$
C13940-P9
     RDKit          3D

 45 46  0  0  0  0  0  0  0  0999 V2000
  -10.6959  -23.8676   12.6919 C   0  0  0  0  0  0  0  0  0  0  0  0
  -10.3647  -25.2873   12.2480 C   0  0  0  0  0  0  0  0  0  0  0  0
  -10.8059  -25.4833   10.8799 N   0  0  0  0  0  0  0  0  0  0  0  0
  -10.4949  -26.5167    9.9261 C   0  0  0  0  0  0  0  0  0  0  0  0
   -9.7296  -27.4372    9.9924 O   0  0  0  0  0  0  0  0  0  0  0  0
  -11.2151  -26.3057    8.5764 C   0  0  0  0  0  0  0  0  0  0  0  0
  -12.5484  -25.6103    8.6275 C   0  0  0  0  0  0  0  0  0  0  0  0
  -13.6465  -26.2013    9.2560 C   0  0  0  0  0  0  0  0  0  0  0  0
  -14.8305  -25.4843    9.3772 C   0  0  0  0  0  0  0  0  0  0  0  0
  -14.8760  -24.1969    8.8673 C   0  0  0  0  0  0  0  0  0  0  0  0
  -13.8376  -23.5944    8.2502 N   0  0  0  0  0  0  0  0  0  0  0  0
  -12.7071  -24.3232    8.1179 C   0  0  0  0  0  0  0  0  0  0  0  0
  -10.8912  -26.3976   13.1831 C   0  0  0  0  0  0  0  0  0  0  0  0
  -12.3580  -26.3048   13.5807 C   0  0  0  0  0  0  0  0  0  0  0  0
  -12.6491  -27.3196   14.7058 C   0  0  0  0  0  0  0  0  0  0  0  0
  -12.0698  -26.9738   16.0815 N   0  0  0  0  0  0  0  0  0  0  0  0
  -12.8702  -27.5628   17.1149 C   0  0  0  0  0  0  0  0  0  0  0  0
  -12.7804  -28.6311   17.6592 O   0  0  0  0  0  0  0  0  0  0  0  0
  -13.9072  -26.5524   17.5827 C   0  0  0  0  0  0  0  0  0  0  0  0
  -15.1973  -27.2104   17.7962 C   0  0  0  0  0  0  0  0  0  0  0  0
  -16.2432  -27.6901   17.9549 N   0  0  0  0  0  0  0  0  0  0  0  0
  -10.8013  -27.4535   15.4298 C   0  0  0  0  0  0  0  0  0  0  0  0
  -10.1093  -26.4735   14.4847 C   0  0  0  0  0  0  0  0  0  0  0  0
  -11.7733  -23.6775   12.6700 H   0  0  0  0  0  0  0  0  0  0  0  0
  -10.3248  -23.6624   13.6992 H   0  0  0  0  0  0  0  0  0  0  0  0
  -10.2350  -23.1371   12.0213 H   0  0  0  0  0  0  0  0  0  0  0  0
   -9.2722  -25.3866   12.2058 H   0  0  0  0  0  0  0  0  0  0  0  0
  -11.5640  -24.9179   10.5186 H   0  0  0  0  0  0  0  0  0  0  0  0
  -10.5225  -25.7610    7.9235 H   0  0  0  0  0  0  0  0  0  0  0  0
  -11.3686  -27.2925    8.1208 H   0  0  0  0  0  0  0  0  0  0  0  0
  -13.5812  -27.2090    9.6604 H   0  0  0  0  0  0  0  0  0  0  0  0
  -15.7012  -25.9185    9.8567 H   0  0  0  0  0  0  0  0  0  0  0  0
  -15.7817  -23.6006    8.9381 H   0  0  0  0  0  0  0  0  0  0  0  0
  -11.8990  -23.8142    7.5957 H   0  0  0  0  0  0  0  0  0  0  0  0
  -10.7537  -27.3625   12.6735 H   0  0  0  0  0  0  0  0  0  0  0  0
  -12.9970  -26.5126   12.7151 H   0  0  0  0  0  0  0  0  0  0  0  0
  -12.6146  -25.3046   13.9459 H   0  0  0  0  0  0  0  0  0  0  0  0
  -12.5677  -28.3795   14.4078 H   0  0  0  0  0  0  0  0  0  0  0  0
  -13.7377  -27.2319   14.8547 H   0  0  0  0  0  0  0  0  0  0  0  0
  -14.0173  -25.7377   16.8589 H   0  0  0  0  0  0  0  0  0  0  0  0
  -13.5447  -26.1136   18.5178 H   0  0  0  0  0  0  0  0  0  0  0  0
  -10.1291  -27.5072   16.3006 H   0  0  0  0  0  0  0  0  0  0  0  0
  -10.7896  -28.5096   15.1103 H   0  0  0  0  0  0  0  0  0  0  0  0
   -9.0885  -26.8170   14.2859 H   0  0  0  0  0  0  0  0  0  0  0  0
  -10.0420  -25.4929   14.9653 H   0  0  0  0  0  0  0  0  0  0  0  0
  1  2  1  0
  2  3  1  0
  3  4  1  0
  4  5  2  0
  4  6  1  0
  6  7  1  0
  7  8  2  0
  8  9  1  0
  9 10  2  0
 10 11  1  0
 11 12  2  0
  2 13  1  0
 13 14  1  0
 14 15  1  0
 15 16  1  0
 16 17  1  0
 17 18  2  0
 17 19  1  0
 19 20  1  0
 20 21  3  0
 16 22  1  0
 22 23  1  0
 12  7  1  0
 23 13  1  0
  1 24  1  0
  1 25  1  0
  1 26  1  0
  2 27  1  0
  3 28  1  0
  6 29  1  0
  6 30  1  0
  8 31  1  0
  9 32  1  0
 10 33  1  0
 12 34  1  0
 13 35  1  0
 14 36  1  0
 14 37  1  0
 15 38  1  0
 15 39  1  0
 19 40  1  0
 19 41  1  0
 22 42  1  0
 22 43  1  0
 23 44  1  0
 23 45  1  0
M  END
>  <Energy>  (1107) 
86.339995459430952

>  <compound_id>  (1107) 
13940

>  <target_id>  (1107) 
1

>  <reference_id>  (1107) 
9

>  <inspiration_ids>  (1107) 
[9, 48]

>  <energy_score>  (1107) 
37.01963146064324

>  <distance_score>  (1107) 
2.0531265763826525

>  <path>  (1107) 
/opt/xchem-fragalysis-2/maxwin/BulkDock/SCRATCH/511014/C13940-P9/C13940-P9.minimised.mol

>  <scratch_subdir>  (1107) 
/opt/xchem-fragalysis-2/maxwin/BulkDock/SCRATCH/511014/C13940-P9

>  <fragmenstein_runtime>  (1107) 
5.522287130355835

>  <fragmenstein_outcome>  (1107) 
too moved

>  <fragmenstein_mode>  (1107) 
expansion

>  <fragmenstein_error>  (1107) 


$$$$
C13940-P48
     RDKit          3D

 45 46  0  0  0  0  0  0  0  0999 V2000
  -10.5215  -24.3474   12.4614 C   0  0  0  0  0  0  0  0  0  0  0  0
  -10.1509  -25.7090   11.8816 C   0  0  0  0  0  0  0  0  0  0  0  0
  -10.5750  -25.7492   10.4921 N   0  0  0  0  0  0  0  0  0  0  0  0
  -10.1546  -26.5897    9.4002 C   0  0  0  0  0  0  0  0  0  0  0  0
   -9.2905  -27.4186    9.3392 O   0  0  0  0  0  0  0  0  0  0  0  0
  -10.9095  -26.2770    8.0905 C   0  0  0  0  0  0  0  0  0  0  0  0
  -12.2938  -25.7024    8.2283 C   0  0  0  0  0  0  0  0  0  0  0  0
  -13.3379  -26.4512    8.7763 C   0  0  0  0  0  0  0  0  0  0  0  0
  -14.5727  -25.8489    8.9851 C   0  0  0  0  0  0  0  0  0  0  0  0
  -14.7219  -24.5157    8.6387 C   0  0  0  0  0  0  0  0  0  0  0  0
  -13.7380  -23.7620    8.1033 N   0  0  0  0  0  0  0  0  0  0  0  0
  -12.5544  -24.3774    7.8871 C   0  0  0  0  0  0  0  0  0  0  0  0
  -10.6687  -26.9658   12.6438 C   0  0  0  0  0  0  0  0  0  0  0  0
  -12.0828  -26.8698   13.1971 C   0  0  0  0  0  0  0  0  0  0  0  0
  -12.0883  -26.2796   14.6217 C   0  0  0  0  0  0  0  0  0  0  0  0
  -11.4895  -27.0691   15.7840 N   0  0  0  0  0  0  0  0  0  0  0  0
  -12.1297  -28.3515   15.8937 C   0  0  0  0  0  0  0  0  0  0  0  0
  -11.8465  -29.4112   15.3997 O   0  0  0  0  0  0  0  0  0  0  0  0
  -13.3231  -28.2002   16.8310 C   0  0  0  0  0  0  0  0  0  0  0  0
  -13.5973  -29.4364   17.5655 C   0  0  0  0  0  0  0  0  0  0  0  0
  -13.8586  -30.3927   18.1708 N   0  0  0  0  0  0  0  0  0  0  0  0
  -10.2006  -26.6665   15.1106 C   0  0  0  0  0  0  0  0  0  0  0  0
   -9.7823  -27.3677   13.8154 C   0  0  0  0  0  0  0  0  0  0  0  0
  -11.6052  -24.2010   12.5078 H   0  0  0  0  0  0  0  0  0  0  0  0
  -10.0987  -24.2024   13.4571 H   0  0  0  0  0  0  0  0  0  0  0  0
  -10.1336  -23.5398   11.8332 H   0  0  0  0  0  0  0  0  0  0  0  0
   -9.0566  -25.7742   11.8336 H   0  0  0  0  0  0  0  0  0  0  0  0
  -11.3932  -25.2253   10.2092 H   0  0  0  0  0  0  0  0  0  0  0  0
  -10.2720  -25.6058    7.5027 H   0  0  0  0  0  0  0  0  0  0  0  0
  -10.9911  -27.2123    7.5216 H   0  0  0  0  0  0  0  0  0  0  0  0
  -13.1903  -27.4932    9.0521 H   0  0  0  0  0  0  0  0  0  0  0  0
  -15.4027  -26.4065    9.4051 H   0  0  0  0  0  0  0  0  0  0  0  0
  -15.6704  -24.0050    8.7811 H   0  0  0  0  0  0  0  0  0  0  0  0
  -11.7887  -23.7454    7.4409 H   0  0  0  0  0  0  0  0  0  0  0  0
  -10.6446  -27.7997   11.9285 H   0  0  0  0  0  0  0  0  0  0  0  0
  -12.5258  -27.8731   13.2231 H   0  0  0  0  0  0  0  0  0  0  0  0
  -12.7248  -26.2762   12.5364 H   0  0  0  0  0  0  0  0  0  0  0  0
  -13.1589  -26.2474   14.8802 H   0  0  0  0  0  0  0  0  0  0  0  0
  -11.8411  -25.2093   14.6593 H   0  0  0  0  0  0  0  0  0  0  0  0
  -14.1939  -27.9254   16.2262 H   0  0  0  0  0  0  0  0  0  0  0  0
  -13.1387  -27.3892   17.5451 H   0  0  0  0  0  0  0  0  0  0  0  0
   -9.9991  -25.5872   15.1278 H   0  0  0  0  0  0  0  0  0  0  0  0
   -9.4678  -27.0367   15.8446 H   0  0  0  0  0  0  0  0  0  0  0  0
   -9.8513  -28.4532   13.9606 H   0  0  0  0  0  0  0  0  0  0  0  0
   -8.7289  -27.1625   13.5979 H   0  0  0  0  0  0  0  0  0  0  0  0
  1  2  1  0
  2  3  1  0
  3  4  1  0
  4  5  2  0
  4  6  1  0
  6  7  1  0
  7  8  2  0
  8  9  1  0
  9 10  2  0
 10 11  1  0
 11 12  2  0
  2 13  1  0
 13 14  1  0
 14 15  1  0
 15 16  1  0
 16 17  1  0
 17 18  2  0
 17 19  1  0
 19 20  1  0
 20 21  3  0
 16 22  1  0
 22 23  1  0
 12  7  1  0
 23 13  1  0
  1 24  1  0
  1 25  1  0
  1 26  1  0
  2 27  1  0
  3 28  1  0
  6 29  1  0
  6 30  1  0
  8 31  1  0
  9 32  1  0
 10 33  1  0
 12 34  1  0
 13 35  1  0
 14 36  1  0
 14 37  1  0
 15 38  1  0
 15 39  1  0
 19 40  1  0
 19 41  1  0
 22 42  1  0
 22 43  1  0
 23 44  1  0
 23 45  1  0
M  END
>  <Energy>  (1108) 
95.659571967346935

>  <compound_id>  (1108) 
13940

>  <target_id>  (1108) 
1

>  <reference_id>  (1108) 
48

>  <inspiration_ids>  (1108) 
[9, 48]

>  <energy_score>  (1108) 
46.33920796855975

>  <distance_score>  (1108) 
2.1649573404521942

>  <path>  (1108) 
/opt/xchem-fragalysis-2/maxwin/BulkDock/SCRATCH/511014/C13940-P48/C13940-P48.minimised.mol

>  <scratch_subdir>  (1108) 
/opt/xchem-fragalysis-2/maxwin/BulkDock/SCRATCH/511014/C13940-P48

>  <fragmenstein_runtime>  (1108) 
5.59994912147522

>  <fragmenstein_outcome>  (1108) 
too moved

>  <fragmenstein_mode>  (1108) 
expansion

>  <fragmenstein_error>  (1108) 


$$$$
C13942-P9
     RDKit          3D

 51 52  0  0  0  0  0  0  0  0999 V2000
  -15.8443  -26.9623   17.2871 C   0  0  0  0  0  0  0  0  0  0  0  0
  -15.6647  -28.3422   17.5821 O   0  0  0  0  0  0  0  0  0  0  0  0
  -14.5857  -28.9242   16.8479 C   0  0  0  0  0  0  0  0  0  0  0  0
  -14.5924  -30.4165   17.1643 C   0  0  0  0  0  0  0  0  0  0  0  0
  -13.1983  -28.3357   17.2286 C   0  0  0  0  0  0  0  0  0  0  0  0
  -12.7980  -28.4015   18.3614 O   0  0  0  0  0  0  0  0  0  0  0  0
  -12.6364  -27.6884   16.0763 N   0  0  0  0  0  0  0  0  0  0  0  0
  -11.7318  -28.6563   15.3211 C   0  0  0  0  0  0  0  0  0  0  0  0
  -11.5818  -28.3879   13.8155 C   0  0  0  0  0  0  0  0  0  0  0  0
  -10.7071  -27.1587   13.6071 C   0  0  0  0  0  0  0  0  0  0  0  0
  -10.6065  -26.7035   12.1394 C   0  0  0  0  0  0  0  0  0  0  0  0
   -9.6658  -25.5131   11.9590 C   0  0  0  0  0  0  0  0  0  0  0  0
  -11.8903  -26.4058   11.5412 N   0  0  0  0  0  0  0  0  0  0  0  0
  -12.8237  -27.2491   10.8433 C   0  0  0  0  0  0  0  0  0  0  0  0
  -12.8146  -28.4301   10.6470 O   0  0  0  0  0  0  0  0  0  0  0  0
  -13.9651  -26.4024   10.2701 C   0  0  0  0  0  0  0  0  0  0  0  0
  -13.4998  -25.4349    9.2132 C   0  0  0  0  0  0  0  0  0  0  0  0
  -12.6387  -25.8293    8.1850 C   0  0  0  0  0  0  0  0  0  0  0  0
  -12.2082  -24.8939    7.2523 C   0  0  0  0  0  0  0  0  0  0  0  0
  -12.6619  -23.5909    7.3714 C   0  0  0  0  0  0  0  0  0  0  0  0
  -13.5176  -23.1730    8.3326 N   0  0  0  0  0  0  0  0  0  0  0  0
  -13.9258  -24.1100    9.2184 C   0  0  0  0  0  0  0  0  0  0  0  0
  -11.2240  -26.1174   14.5835 C   0  0  0  0  0  0  0  0  0  0  0  0
  -11.4357  -26.7979   15.9427 C   0  0  0  0  0  0  0  0  0  0  0  0
  -16.7338  -26.6133   17.8188 H   0  0  0  0  0  0  0  0  0  0  0  0
  -14.9885  -26.3745   17.6316 H   0  0  0  0  0  0  0  0  0  0  0  0
  -15.9998  -26.8128   16.2143 H   0  0  0  0  0  0  0  0  0  0  0  0
  -14.7769  -28.7954   15.7753 H   0  0  0  0  0  0  0  0  0  0  0  0
  -13.7872  -30.9437   16.6443 H   0  0  0  0  0  0  0  0  0  0  0  0
  -14.4756  -30.5913   18.2401 H   0  0  0  0  0  0  0  0  0  0  0  0
  -15.5493  -30.8640   16.8746 H   0  0  0  0  0  0  0  0  0  0  0  0
  -12.2808  -29.6100   15.3578 H   0  0  0  0  0  0  0  0  0  0  0  0
  -10.7958  -28.9367   15.8324 H   0  0  0  0  0  0  0  0  0  0  0  0
  -12.5820  -28.2480   13.3918 H   0  0  0  0  0  0  0  0  0  0  0  0
  -11.1316  -29.2575   13.3234 H   0  0  0  0  0  0  0  0  0  0  0  0
   -9.6889  -27.4274   13.9269 H   0  0  0  0  0  0  0  0  0  0  0  0
  -10.1976  -27.5448   11.5650 H   0  0  0  0  0  0  0  0  0  0  0  0
  -10.0554  -24.6075   12.4358 H   0  0  0  0  0  0  0  0  0  0  0  0
   -9.5367  -25.2900   10.8946 H   0  0  0  0  0  0  0  0  0  0  0  0
   -8.6780  -25.7303   12.3739 H   0  0  0  0  0  0  0  0  0  0  0  0
  -12.1769  -25.4384   11.4373 H   0  0  0  0  0  0  0  0  0  0  0  0
  -14.4458  -25.8774   11.1049 H   0  0  0  0  0  0  0  0  0  0  0  0
  -14.7187  -27.0700    9.8356 H   0  0  0  0  0  0  0  0  0  0  0  0
  -12.2870  -26.8565    8.1092 H   0  0  0  0  0  0  0  0  0  0  0  0
  -11.5175  -25.1657    6.4616 H   0  0  0  0  0  0  0  0  0  0  0  0
  -12.3271  -22.8253    6.6769 H   0  0  0  0  0  0  0  0  0  0  0  0
  -14.6247  -23.7452    9.9667 H   0  0  0  0  0  0  0  0  0  0  0  0
  -10.5008  -25.3019   14.6916 H   0  0  0  0  0  0  0  0  0  0  0  0
  -12.1682  -25.6814   14.2357 H   0  0  0  0  0  0  0  0  0  0  0  0
  -10.5157  -27.1429   16.4449 H   0  0  0  0  0  0  0  0  0  0  0  0
  -11.7277  -25.9769   16.6117 H   0  0  0  0  0  0  0  0  0  0  0  0
  1  2  1  0
  2  3  1  0
  3  4  1  0
  3  5  1  0
  5  6  2  0
  5  7  1  0
  7  8  1  0
  8  9  1  0
  9 10  1  0
 10 11  1  0
 11 12  1  0
 11 13  1  0
 13 14  1  0
 14 15  2  0
 14 16  1  0
 16 17  1  0
 17 18  2  0
 18 19  1  0
 19 20  2  0
 20 21  1  0
 21 22  2  0
 10 23  1  0
 23 24  1  0
 24  7  1  0
 22 17  1  0
  1 25  1  0
  1 26  1  0
  1 27  1  0
  3 28  1  0
  4 29  1  0
  4 30  1  0
  4 31  1  0
  8 32  1  0
  8 33  1  0
  9 34  1  0
  9 35  1  0
 10 36  1  0
 11 37  1  0
 12 38  1  0
 12 39  1  0
 12 40  1  0
 13 41  1  0
 16 42  1  0
 16 43  1  0
 18 44  1  0
 19 45  1  0
 20 46  1  0
 22 47  1  0
 23 48  1  0
 23 49  1  0
 24 50  1  0
 24 51  1  0
M  END
>  <Energy>  (1109) 
124.89794495894765

>  <compound_id>  (1109) 
13942

>  <target_id>  (1109) 
1

>  <reference_id>  (1109) 
9

>  <inspiration_ids>  (1109) 
[9, 48]

>  <energy_score>  (1109) 
24.23531555970328

>  <distance_score>  (1109) 
2.008000027444339

>  <path>  (1109) 
/opt/xchem-fragalysis-2/maxwin/BulkDock/SCRATCH/511014/C13942-P9/C13942-P9.minimised.mol

>  <scratch_subdir>  (1109) 
/opt/xchem-fragalysis-2/maxwin/BulkDock/SCRATCH/511014/C13942-P9

>  <fragmenstein_runtime>  (1109) 
6.968036413192749

>  <fragmenstein_outcome>  (1109) 
too moved

>  <fragmenstein_mode>  (1109) 
expansion

>  <fragmenstein_error>  (1109) 


$$$$
C13942-P48
     RDKit          3D

 51 52  0  0  0  0  0  0  0  0999 V2000
  -13.3964  -30.7023   18.2998 C   0  0  0  0  0  0  0  0  0  0  0  0
  -13.8211  -29.3605   18.0873 O   0  0  0  0  0  0  0  0  0  0  0  0
  -14.4658  -29.1465   16.8306 C   0  0  0  0  0  0  0  0  0  0  0  0
  -15.8126  -29.8670   16.7704 C   0  0  0  0  0  0  0  0  0  0  0  0
  -13.5955  -29.4884   15.5780 C   0  0  0  0  0  0  0  0  0  0  0  0
  -13.6874  -30.5057   14.9910 O   0  0  0  0  0  0  0  0  0  0  0  0
  -12.6548  -28.3095   15.3648 N   0  0  0  0  0  0  0  0  0  0  0  0
  -13.2557  -27.2943   14.4169 C   0  0  0  0  0  0  0  0  0  0  0  0
  -12.8471  -25.8511   14.7062 C   0  0  0  0  0  0  0  0  0  0  0  0
  -11.4032  -25.5886   14.2973 C   0  0  0  0  0  0  0  0  0  0  0  0
  -11.3274  -24.9736   12.8891 C   0  0  0  0  0  0  0  0  0  0  0  0
   -9.9266  -24.5555   12.4655 C   0  0  0  0  0  0  0  0  0  0  0  0
  -11.9630  -25.7798   11.8790 N   0  0  0  0  0  0  0  0  0  0  0  0
  -11.4648  -27.0558   11.1457 C   0  0  0  0  0  0  0  0  0  0  0  0
  -10.4977  -27.6900   11.3043 O   0  0  0  0  0  0  0  0  0  0  0  0
  -12.5363  -27.4038   10.1167 C   0  0  0  0  0  0  0  0  0  0  0  0
  -12.4972  -26.4394    8.9705 C   0  0  0  0  0  0  0  0  0  0  0  0
  -11.4955  -26.5382    8.0069 C   0  0  0  0  0  0  0  0  0  0  0  0
  -11.4362  -25.5975    6.9897 C   0  0  0  0  0  0  0  0  0  0  0  0
  -12.3690  -24.5739    6.9831 C   0  0  0  0  0  0  0  0  0  0  0  0
  -13.3519  -24.4415    7.9003 N   0  0  0  0  0  0  0  0  0  0  0  0
  -13.3985  -25.3839    8.8628 C   0  0  0  0  0  0  0  0  0  0  0  0
  -10.6261  -26.8731   14.5525 C   0  0  0  0  0  0  0  0  0  0  0  0
  -11.4974  -28.1352   14.4088 C   0  0  0  0  0  0  0  0  0  0  0  0
  -14.2559  -31.3578   18.4629 H   0  0  0  0  0  0  0  0  0  0  0  0
  -12.7875  -31.0753   17.4729 H   0  0  0  0  0  0  0  0  0  0  0  0
  -12.7822  -30.7257   19.2039 H   0  0  0  0  0  0  0  0  0  0  0  0
  -14.6869  -28.0734   16.7999 H   0  0  0  0  0  0  0  0  0  0  0  0
  -16.3739  -29.5654   15.8800 H   0  0  0  0  0  0  0  0  0  0  0  0
  -15.6927  -30.9545   16.7281 H   0  0  0  0  0  0  0  0  0  0  0  0
  -16.4109  -29.6410   17.6592 H   0  0  0  0  0  0  0  0  0  0  0  0
  -14.3243  -27.3058   14.6873 H   0  0  0  0  0  0  0  0  0  0  0  0
  -13.3453  -27.5822   13.3560 H   0  0  0  0  0  0  0  0  0  0  0  0
  -12.9464  -25.6915   15.7879 H   0  0  0  0  0  0  0  0  0  0  0  0
  -13.5399  -25.1516   14.2242 H   0  0  0  0  0  0  0  0  0  0  0  0
  -10.9844  -24.8258   14.9641 H   0  0  0  0  0  0  0  0  0  0  0  0
  -11.9233  -24.0505   12.9121 H   0  0  0  0  0  0  0  0  0  0  0  0
   -9.2368  -25.4002   12.3917 H   0  0  0  0  0  0  0  0  0  0  0  0
   -9.5196  -23.8245   13.1689 H   0  0  0  0  0  0  0  0  0  0  0  0
   -9.9709  -24.0839   11.4829 H   0  0  0  0  0  0  0  0  0  0  0  0
  -12.8051  -25.4402   11.4327 H   0  0  0  0  0  0  0  0  0  0  0  0
  -13.5206  -27.4154   10.5998 H   0  0  0  0  0  0  0  0  0  0  0  0
  -12.3617  -28.4253    9.7576 H   0  0  0  0  0  0  0  0  0  0  0  0
  -10.7495  -27.3289    8.0516 H   0  0  0  0  0  0  0  0  0  0  0  0
  -10.6567  -25.6360    6.2365 H   0  0  0  0  0  0  0  0  0  0  0  0
  -12.3380  -23.8024    6.2189 H   0  0  0  0  0  0  0  0  0  0  0  0
  -14.2150  -25.2581    9.5681 H   0  0  0  0  0  0  0  0  0  0  0  0
   -9.7385  -26.9547   13.9189 H   0  0  0  0  0  0  0  0  0  0  0  0
  -10.2564  -26.8465   15.5873 H   0  0  0  0  0  0  0  0  0  0  0  0
  -11.6825  -28.4944   13.3857 H   0  0  0  0  0  0  0  0  0  0  0  0
  -10.8326  -28.9443   14.7554 H   0  0  0  0  0  0  0  0  0  0  0  0
  1  2  1  0
  2  3  1  0
  3  4  1  0
  3  5  1  0
  5  6  2  0
  5  7  1  0
  7  8  1  0
  8  9  1  0
  9 10  1  0
 10 11  1  0
 11 12  1  0
 11 13  1  0
 13 14  1  0
 14 15  2  0
 14 16  1  0
 16 17  1  0
 17 18  2  0
 18 19  1  0
 19 20  2  0
 20 21  1  0
 21 22  2  0
 10 23  1  0
 23 24  1  0
 24  7  1  0
 22 17  1  0
  1 25  1  0
  1 26  1  0
  1 27  1  0
  3 28  1  0
  4 29  1  0
  4 30  1  0
  4 31  1  0
  8 32  1  0
  8 33  1  0
  9 34  1  0
  9 35  1  0
 10 36  1  0
 11 37  1  0
 12 38  1  0
 12 39  1  0
 12 40  1  0
 13 41  1  0
 16 42  1  0
 16 43  1  0
 18 44  1  0
 19 45  1  0
 20 46  1  0
 22 47  1  0
 23 48  1  0
 23 49  1  0
 24 50  1  0
 24 51  1  0
M  END
>  <Energy>  (1110) 
150.47917887506563

>  <compound_id>  (1110) 
13942

>  <target_id>  (1110) 
1

>  <reference_id>  (1110) 
48

>  <inspiration_ids>  (1110) 
[9, 48]

>  <energy_score>  (1110) 
54.4953344755848

>  <distance_score>  (1110) 
1.8903619236462936

>  <path>  (1110) 
/opt/xchem-fragalysis-2/maxwin/BulkDock/SCRATCH/511014/C13942-P48/C13942-P48.minimised.mol

>  <scratch_subdir>  (1110) 
/opt/xchem-fragalysis-2/maxwin/BulkDock/SCRATCH/511014/C13942-P48

>  <fragmenstein_runtime>  (1110) 
5.794180870056152

>  <fragmenstein_outcome>  (1110) 
too moved

>  <fragmenstein_mode>  (1110) 
expansion

>  <fragmenstein_error>  (1110) 


$$$$
C13944-P9
     RDKit          3D

 40 41  0  0  0  0  0  0  0  0999 V2000
  -10.2367  -24.4920   12.8718 C   0  0  0  0  0  0  0  0  0  0  0  0
   -9.9563  -25.9952   12.7343 C   0  0  0  0  0  0  0  0  0  0  0  0
  -10.0600  -26.3629   11.3376 N   0  0  0  0  0  0  0  0  0  0  0  0
  -10.6876  -25.6164   10.1554 C   0  0  0  0  0  0  0  0  0  0  0  0
  -11.2900  -24.6209   10.1259 O   0  0  0  0  0  0  0  0  0  0  0  0
  -10.5091  -26.4614    8.8811 C   0  0  0  0  0  0  0  0  0  0  0  0
  -11.8301  -26.3740    8.1618 C   0  0  0  0  0  0  0  0  0  0  0  0
  -12.8946  -27.1546    8.6112 C   0  0  0  0  0  0  0  0  0  0  0  0
  -14.1828  -26.7665    8.2909 C   0  0  0  0  0  0  0  0  0  0  0  0
  -14.3576  -25.6421    7.4989 C   0  0  0  0  0  0  0  0  0  0  0  0
  -13.3515  -24.9056    6.9900 N   0  0  0  0  0  0  0  0  0  0  0  0
  -12.1060  -25.2800    7.3397 C   0  0  0  0  0  0  0  0  0  0  0  0
  -10.9011  -26.8787   13.5896 C   0  0  0  0  0  0  0  0  0  0  0  0
  -10.5135  -28.2528   13.3311 O   0  0  0  0  0  0  0  0  0  0  0  0
  -12.4027  -26.7627   13.2328 C   0  0  0  0  0  0  0  0  0  0  0  0
  -13.1873  -25.9820   14.2772 C   0  0  0  0  0  0  0  0  0  0  0  0
  -13.0781  -26.5612   15.6118 N   0  0  0  0  0  0  0  0  0  0  0  0
  -11.7921  -27.1838   15.9158 C   0  0  0  0  0  0  0  0  0  0  0  0
  -10.6463  -26.6353   15.0814 C   0  0  0  0  0  0  0  0  0  0  0  0
   -9.5944  -23.9166   12.2033 H   0  0  0  0  0  0  0  0  0  0  0  0
  -10.0269  -24.1320   13.8821 H   0  0  0  0  0  0  0  0  0  0  0  0
  -11.2736  -24.2333   12.6394 H   0  0  0  0  0  0  0  0  0  0  0  0
   -8.9168  -26.2047   13.0048 H   0  0  0  0  0  0  0  0  0  0  0  0
   -9.5349  -27.1597   10.9940 H   0  0  0  0  0  0  0  0  0  0  0  0
  -10.2722  -27.5062    9.1037 H   0  0  0  0  0  0  0  0  0  0  0  0
   -9.6933  -26.0434    8.2828 H   0  0  0  0  0  0  0  0  0  0  0  0
  -12.7378  -27.9900    9.2869 H   0  0  0  0  0  0  0  0  0  0  0  0
  -15.0421  -27.3158    8.6587 H   0  0  0  0  0  0  0  0  0  0  0  0
  -15.3544  -25.3047    7.2286 H   0  0  0  0  0  0  0  0  0  0  0  0
  -11.3188  -24.6015    7.0166 H   0  0  0  0  0  0  0  0  0  0  0  0
  -10.7941  -28.4498   12.4209 H   0  0  0  0  0  0  0  0  0  0  0  0
  -12.5496  -26.2949   12.2539 H   0  0  0  0  0  0  0  0  0  0  0  0
  -12.8461  -27.7642   13.1428 H   0  0  0  0  0  0  0  0  0  0  0  0
  -12.8449  -24.9438   14.2898 H   0  0  0  0  0  0  0  0  0  0  0  0
  -14.2454  -25.9542   13.9951 H   0  0  0  0  0  0  0  0  0  0  0  0
  -13.3387  -25.8738   16.3177 H   0  0  0  0  0  0  0  0  0  0  0  0
  -11.5732  -27.0434   16.9805 H   0  0  0  0  0  0  0  0  0  0  0  0
  -11.8815  -28.2659   15.7630 H   0  0  0  0  0  0  0  0  0  0  0  0
  -10.5503  -25.5712   15.3029 H   0  0  0  0  0  0  0  0  0  0  0  0
   -9.7120  -27.1165   15.3962 H   0  0  0  0  0  0  0  0  0  0  0  0
  1  2  1  0
  2  3  1  0
  3  4  1  0
  4  5  2  0
  4  6  1  0
  6  7  1  0
  7  8  2  0
  8  9  1  0
  9 10  2  0
 10 11  1  0
 11 12  2  0
  2 13  1  0
 13 14  1  0
 13 15  1  0
 15 16  1  0
 16 17  1  0
 17 18  1  0
 18 19  1  0
 12  7  1  0
 19 13  1  0
  1 20  1  0
  1 21  1  0
  1 22  1  0
  2 23  1  0
  3 24  1  0
  6 25  1  0
  6 26  1  0
  8 27  1  0
  9 28  1  0
 10 29  1  0
 12 30  1  0
 14 31  1  0
 15 32  1  0
 15 33  1  0
 16 34  1  0
 16 35  1  0
 17 36  1  0
 18 37  1  0
 18 38  1  0
 19 39  1  0
 19 40  1  0
M  END
>  <Energy>  (1111) 
67.502680521533705

>  <compound_id>  (1111) 
13944

>  <target_id>  (1111) 
1

>  <reference_id>  (1111) 
9

>  <inspiration_ids>  (1111) 
[9, 48]

>  <energy_score>  (1111) 
-6.839565908592228

>  <distance_score>  (1111) 
2.3381586331385225

>  <path>  (1111) 
/opt/xchem-fragalysis-2/maxwin/BulkDock/SCRATCH/511014/C13944-P9/C13944-P9.minimised.mol

>  <scratch_subdir>  (1111) 
/opt/xchem-fragalysis-2/maxwin/BulkDock/SCRATCH/511014/C13944-P9

>  <fragmenstein_runtime>  (1111) 
2.80430269241333

>  <fragmenstein_outcome>  (1111) 
too moved

>  <fragmenstein_mode>  (1111) 
expansion

>  <fragmenstein_error>  (1111) 


$$$$
C13944-P48
     RDKit          3D

 40 41  0  0  0  0  0  0  0  0999 V2000
  -10.9112  -23.7231   12.1773 C   0  0  0  0  0  0  0  0  0  0  0  0
  -10.3491  -25.1302   12.0341 C   0  0  0  0  0  0  0  0  0  0  0  0
  -10.4798  -25.5470   10.6519 N   0  0  0  0  0  0  0  0  0  0  0  0
   -9.5681  -26.4608    9.7812 C   0  0  0  0  0  0  0  0  0  0  0  0
   -8.6163  -27.0767   10.0697 O   0  0  0  0  0  0  0  0  0  0  0  0
  -10.1182  -26.5065    8.3300 C   0  0  0  0  0  0  0  0  0  0  0  0
  -11.5827  -26.1782    8.1942 C   0  0  0  0  0  0  0  0  0  0  0  0
  -12.5394  -26.9602    8.8452 C   0  0  0  0  0  0  0  0  0  0  0  0
  -13.8264  -26.4666    8.9898 C   0  0  0  0  0  0  0  0  0  0  0  0
  -14.1223  -25.2272    8.4472 C   0  0  0  0  0  0  0  0  0  0  0  0
  -13.2396  -24.4727    7.7619 N   0  0  0  0  0  0  0  0  0  0  0  0
  -11.9943  -24.9742    7.6266 C   0  0  0  0  0  0  0  0  0  0  0  0
  -10.9944  -26.1766   13.0040 C   0  0  0  0  0  0  0  0  0  0  0  0
  -10.6416  -27.5073   12.5673 O   0  0  0  0  0  0  0  0  0  0  0  0
  -12.5329  -26.1047   13.0389 C   0  0  0  0  0  0  0  0  0  0  0  0
  -13.1260  -27.0272   14.1034 C   0  0  0  0  0  0  0  0  0  0  0  0
  -12.5750  -26.7460   15.4311 N   0  0  0  0  0  0  0  0  0  0  0  0
  -11.1250  -26.9424   15.4222 C   0  0  0  0  0  0  0  0  0  0  0  0
  -10.4340  -26.0132   14.4260 C   0  0  0  0  0  0  0  0  0  0  0  0
  -10.8654  -23.3718   13.2118 H   0  0  0  0  0  0  0  0  0  0  0  0
  -10.3439  -23.0105   11.5739 H   0  0  0  0  0  0  0  0  0  0  0  0
  -11.9497  -23.6669   11.8378 H   0  0  0  0  0  0  0  0  0  0  0  0
   -9.2689  -25.1109   12.2245 H   0  0  0  0  0  0  0  0  0  0  0  0
  -11.1714  -25.1005   10.0640 H   0  0  0  0  0  0  0  0  0  0  0  0
   -9.9587  -27.5213    7.9450 H   0  0  0  0  0  0  0  0  0  0  0  0
   -9.5065  -25.8285    7.7243 H   0  0  0  0  0  0  0  0  0  0  0  0
  -12.2674  -27.9044    9.3131 H   0  0  0  0  0  0  0  0  0  0  0  0
  -14.5839  -27.0324    9.5212 H   0  0  0  0  0  0  0  0  0  0  0  0
  -15.1192  -24.8045    8.5380 H   0  0  0  0  0  0  0  0  0  0  0  0
  -11.2957  -24.3236    7.1037 H   0  0  0  0  0  0  0  0  0  0  0  0
   -9.7664  -27.4617   12.1336 H   0  0  0  0  0  0  0  0  0  0  0  0
  -12.8721  -25.0859   13.2576 H   0  0  0  0  0  0  0  0  0  0  0  0
  -12.9464  -26.3890   12.0646 H   0  0  0  0  0  0  0  0  0  0  0  0
  -14.2121  -26.8860   14.1386 H   0  0  0  0  0  0  0  0  0  0  0  0
  -12.9610  -28.0796   13.8428 H   0  0  0  0  0  0  0  0  0  0  0  0
  -12.7970  -25.7892   15.6945 H   0  0  0  0  0  0  0  0  0  0  0  0
  -10.7402  -26.7488   16.4286 H   0  0  0  0  0  0  0  0  0  0  0  0
  -10.8896  -27.9914   15.2049 H   0  0  0  0  0  0  0  0  0  0  0  0
  -10.5420  -24.9781   14.7672 H   0  0  0  0  0  0  0  0  0  0  0  0
   -9.3660  -26.2550   14.4317 H   0  0  0  0  0  0  0  0  0  0  0  0
  1  2  1  0
  2  3  1  0
  3  4  1  0
  4  5  2  0
  4  6  1  0
  6  7  1  0
  7  8  2  0
  8  9  1  0
  9 10  2  0
 10 11  1  0
 11 12  2  0
  2 13  1  0
 13 14  1  0
 13 15  1  0
 15 16  1  0
 16 17  1  0
 17 18  1  0
 18 19  1  0
 12  7  1  0
 19 13  1  0
  1 20  1  0
  1 21  1  0
  1 22  1  0
  2 23  1  0
  3 24  1  0
  6 25  1  0
  6 26  1  0
  8 27  1  0
  9 28  1  0
 10 29  1  0
 12 30  1  0
 14 31  1  0
 15 32  1  0
 15 33  1  0
 16 34  1  0
 16 35  1  0
 17 36  1  0
 18 37  1  0
 18 38  1  0
 19 39  1  0
 19 40  1  0
M  END
>  <Energy>  (1112) 
55.662114158469457

>  <compound_id>  (1112) 
13944

>  <target_id>  (1112) 
1

>  <reference_id>  (1112) 
48

>  <inspiration_ids>  (1112) 
[9, 48]

>  <energy_score>  (1112) 
-18.68013227165642

>  <distance_score>  (1112) 
1.824798323577306

>  <path>  (1112) 
/opt/xchem-fragalysis-2/maxwin/BulkDock/SCRATCH/511014/C13944-P48/C13944-P48.minimised.mol

>  <scratch_subdir>  (1112) 
/opt/xchem-fragalysis-2/maxwin/BulkDock/SCRATCH/511014/C13944-P48

>  <fragmenstein_runtime>  (1112) 
1.7938621044158936

>  <fragmenstein_outcome>  (1112) 
too moved

>  <fragmenstein_mode>  (1112) 
expansion

>  <fragmenstein_error>  (1112) 


$$$$
C13945-P9
     RDKit          3D

 48 49  0  0  0  0  0  0  0  0999 V2000
  -14.7188  -24.4041   11.5480 C   0  0  0  0  0  0  0  0  0  0  0  0
  -13.4781  -24.3282   12.4156 C   0  0  0  0  0  0  0  0  0  0  0  0
  -13.5685  -23.9581   13.5483 O   0  0  0  0  0  0  0  0  0  0  0  0
  -12.3406  -24.7596   11.6605 N   0  0  0  0  0  0  0  0  0  0  0  0
  -10.9592  -24.9754   12.0568 C   0  0  0  0  0  0  0  0  0  0  0  0
  -10.3286  -23.7325   12.6537 C   0  0  0  0  0  0  0  0  0  0  0  0
  -10.8887  -26.2263   12.9401 C   0  0  0  0  0  0  0  0  0  0  0  0
   -9.8379  -27.2257   12.4879 C   0  0  0  0  0  0  0  0  0  0  0  0
   -9.9544  -28.4903   13.3633 C   0  0  0  0  0  0  0  0  0  0  0  0
  -11.1513  -28.5633   14.3212 N   0  0  0  0  0  0  0  0  0  0  0  0
  -11.3982  -29.8985   14.6889 C   0  0  0  0  0  0  0  0  0  0  0  0
  -10.9797  -30.5468   15.6152 O   0  0  0  0  0  0  0  0  0  0  0  0
  -12.4548  -30.5511   13.7880 C   0  0  0  0  0  0  0  0  0  0  0  0
  -13.1686  -31.6357   14.5837 C   0  0  0  0  0  0  0  0  0  0  0  0
  -12.9126  -30.3004   12.5378 C   0  0  0  0  0  0  0  0  0  0  0  0
  -12.5986  -29.3447   11.4622 C   0  0  0  0  0  0  0  0  0  0  0  0
  -11.7062  -29.6818   10.4423 C   0  0  0  0  0  0  0  0  0  0  0  0
  -11.5419  -28.8332    9.3439 C   0  0  0  0  0  0  0  0  0  0  0  0
  -12.2867  -27.6665    9.2896 C   0  0  0  0  0  0  0  0  0  0  0  0
  -13.1673  -27.3005   10.2452 N   0  0  0  0  0  0  0  0  0  0  0  0
  -13.3120  -28.1580   11.2970 C   0  0  0  0  0  0  0  0  0  0  0  0
  -10.3773  -27.4740   15.0203 C   0  0  0  0  0  0  0  0  0  0  0  0
  -10.6943  -26.0794   14.4435 C   0  0  0  0  0  0  0  0  0  0  0  0
  -15.0652  -25.4388   11.4936 H   0  0  0  0  0  0  0  0  0  0  0  0
  -15.5088  -23.7897   11.9904 H   0  0  0  0  0  0  0  0  0  0  0  0
  -14.5193  -24.0230   10.5423 H   0  0  0  0  0  0  0  0  0  0  0  0
  -12.6523  -25.0833   10.7470 H   0  0  0  0  0  0  0  0  0  0  0  0
  -10.4441  -25.1809   11.1105 H   0  0  0  0  0  0  0  0  0  0  0  0
  -10.8132  -23.4319   13.5836 H   0  0  0  0  0  0  0  0  0  0  0  0
   -9.2697  -23.9012   12.8524 H   0  0  0  0  0  0  0  0  0  0  0  0
  -10.4013  -22.8914   11.9622 H   0  0  0  0  0  0  0  0  0  0  0  0
  -11.8549  -26.7271   12.8268 H   0  0  0  0  0  0  0  0  0  0  0  0
   -8.8295  -26.8046   12.5859 H   0  0  0  0  0  0  0  0  0  0  0  0
   -9.9615  -27.4818   11.4320 H   0  0  0  0  0  0  0  0  0  0  0  0
   -8.9978  -28.8146   13.8116 H   0  0  0  0  0  0  0  0  0  0  0  0
  -10.1029  -29.3203   12.6601 H   0  0  0  0  0  0  0  0  0  0  0  0
  -14.0366  -32.0443   14.0546 H   0  0  0  0  0  0  0  0  0  0  0  0
  -12.4899  -32.4718   14.7848 H   0  0  0  0  0  0  0  0  0  0  0  0
  -13.5366  -31.2385   15.5364 H   0  0  0  0  0  0  0  0  0  0  0  0
  -13.7279  -30.9415   12.1906 H   0  0  0  0  0  0  0  0  0  0  0  0
  -11.1498  -30.6152   10.4848 H   0  0  0  0  0  0  0  0  0  0  0  0
  -10.8535  -29.0860    8.5445 H   0  0  0  0  0  0  0  0  0  0  0  0
  -12.1920  -26.9822    8.4509 H   0  0  0  0  0  0  0  0  0  0  0  0
  -14.0517  -27.8507   12.0333 H   0  0  0  0  0  0  0  0  0  0  0  0
   -9.3193  -27.6527   15.2779 H   0  0  0  0  0  0  0  0  0  0  0  0
  -10.8204  -27.4762   16.0291 H   0  0  0  0  0  0  0  0  0  0  0  0
   -9.8834  -25.3952   14.7055 H   0  0  0  0  0  0  0  0  0  0  0  0
  -11.6144  -25.6901   14.8922 H   0  0  0  0  0  0  0  0  0  0  0  0
  1  2  1  0
  2  3  2  0
  2  4  1  0
  4  5  1  0
  5  6  1  0
  5  7  1  0
  7  8  1  0
  8  9  1  0
  9 10  1  0
 10 11  1  0
 11 12  2  0
 11 13  1  0
 13 14  1  0
 13 15  2  3
 15 16  1  0
 16 17  2  0
 17 18  1  0
 18 19  2  0
 19 20  1  0
 20 21  2  0
 10 22  1  0
 22 23  1  0
 23  7  1  0
 21 16  1  0
  1 24  1  0
  1 25  1  0
  1 26  1  0
  4 27  1  0
  5 28  1  0
  6 29  1  0
  6 30  1  0
  6 31  1  0
  7 32  1  0
  8 33  1  0
  8 34  1  0
  9 35  1  0
  9 36  1  0
 14 37  1  0
 14 38  1  0
 14 39  1  0
 15 40  1  0
 17 41  1  0
 18 42  1  0
 19 43  1  0
 21 44  1  0
 22 45  1  0
 22 46  1  0
 23 47  1  0
 23 48  1  0
M  END
>  <Energy>  (1113) 
92.202403202430091

>  <compound_id>  (1113) 
13945

>  <target_id>  (1113) 
1

>  <reference_id>  (1113) 
9

>  <inspiration_ids>  (1113) 
[9, 48]

>  <energy_score>  (1113) 
38.914741102220916

>  <distance_score>  (1113) 
3.1177170409881496

>  <path>  (1113) 
/opt/xchem-fragalysis-2/maxwin/BulkDock/SCRATCH/511014/C13945-P9/C13945-P9.minimised.mol

>  <scratch_subdir>  (1113) 
/opt/xchem-fragalysis-2/maxwin/BulkDock/SCRATCH/511014/C13945-P9

>  <fragmenstein_runtime>  (1113) 
5.451992034912109

>  <fragmenstein_outcome>  (1113) 
too moved

>  <fragmenstein_mode>  (1113) 
expansion

>  <fragmenstein_error>  (1113) 


$$$$
C13945-P48
     RDKit          3D

 48 49  0  0  0  0  0  0  0  0999 V2000
   -8.9560  -30.0086    9.3799 C   0  0  0  0  0  0  0  0  0  0  0  0
   -8.6282  -29.5376   10.7820 C   0  0  0  0  0  0  0  0  0  0  0  0
   -8.2727  -30.3222   11.6112 O   0  0  0  0  0  0  0  0  0  0  0  0
   -8.8081  -28.1167   10.8529 N   0  0  0  0  0  0  0  0  0  0  0  0
   -8.7079  -27.1979   11.9747 C   0  0  0  0  0  0  0  0  0  0  0  0
   -8.3262  -25.8217   11.4266 C   0  0  0  0  0  0  0  0  0  0  0  0
  -10.0169  -27.1222   12.7870 C   0  0  0  0  0  0  0  0  0  0  0  0
  -10.6623  -28.4662   13.1042 C   0  0  0  0  0  0  0  0  0  0  0  0
  -11.8325  -28.2636   14.0809 C   0  0  0  0  0  0  0  0  0  0  0  0
  -12.3303  -26.8271   14.1977 N   0  0  0  0  0  0  0  0  0  0  0  0
  -13.7007  -26.8132   14.5667 C   0  0  0  0  0  0  0  0  0  0  0  0
  -14.2173  -26.7812   15.6474 O   0  0  0  0  0  0  0  0  0  0  0  0
  -14.5039  -26.8244   13.2846 C   0  0  0  0  0  0  0  0  0  0  0  0
  -15.6686  -27.7559   13.2977 C   0  0  0  0  0  0  0  0  0  0  0  0
  -14.0335  -26.0567   12.2777 C   0  0  0  0  0  0  0  0  0  0  0  0
  -14.3755  -26.0339   10.8535 C   0  0  0  0  0  0  0  0  0  0  0  0
  -14.3961  -27.1903   10.0732 C   0  0  0  0  0  0  0  0  0  0  0  0
  -14.5325  -27.0882    8.6885 C   0  0  0  0  0  0  0  0  0  0  0  0
  -14.6330  -25.8258    8.1246 C   0  0  0  0  0  0  0  0  0  0  0  0
  -14.6076  -24.6827    8.8412 N   0  0  0  0  0  0  0  0  0  0  0  0
  -14.4751  -24.8170   10.1826 C   0  0  0  0  0  0  0  0  0  0  0  0
  -11.0950  -26.6940   15.0260 C   0  0  0  0  0  0  0  0  0  0  0  0
   -9.8638  -26.4196   14.1435 C   0  0  0  0  0  0  0  0  0  0  0  0
   -8.3223  -29.4934    8.6524 H   0  0  0  0  0  0  0  0  0  0  0  0
  -10.0106  -29.8186    9.1612 H   0  0  0  0  0  0  0  0  0  0  0  0
   -8.7709  -31.0841    9.3015 H   0  0  0  0  0  0  0  0  0  0  0  0
   -9.2018  -27.7891    9.9769 H   0  0  0  0  0  0  0  0  0  0  0  0
   -7.9068  -27.5782   12.6193 H   0  0  0  0  0  0  0  0  0  0  0  0
   -8.2658  -25.0663   12.2094 H   0  0  0  0  0  0  0  0  0  0  0  0
   -7.3546  -25.8647   10.9220 H   0  0  0  0  0  0  0  0  0  0  0  0
   -9.0600  -25.4763   10.6894 H   0  0  0  0  0  0  0  0  0  0  0  0
  -10.7385  -26.5541   12.1811 H   0  0  0  0  0  0  0  0  0  0  0  0
   -9.9402  -29.1589   13.5526 H   0  0  0  0  0  0  0  0  0  0  0  0
  -11.0347  -28.9358   12.1861 H   0  0  0  0  0  0  0  0  0  0  0  0
  -11.7629  -28.8350   15.0237 H   0  0  0  0  0  0  0  0  0  0  0  0
  -12.6665  -28.8066   13.6063 H   0  0  0  0  0  0  0  0  0  0  0  0
  -16.3722  -27.4807   14.0903 H   0  0  0  0  0  0  0  0  0  0  0  0
  -16.2214  -27.7350   12.3538 H   0  0  0  0  0  0  0  0  0  0  0  0
  -15.3370  -28.7848   13.4702 H   0  0  0  0  0  0  0  0  0  0  0  0
  -13.2010  -25.3814   12.4894 H   0  0  0  0  0  0  0  0  0  0  0  0
  -14.2740  -28.1697   10.5275 H   0  0  0  0  0  0  0  0  0  0  0  0
  -14.5489  -27.9736    8.0628 H   0  0  0  0  0  0  0  0  0  0  0  0
  -14.7374  -25.6982    7.0508 H   0  0  0  0  0  0  0  0  0  0  0  0
  -14.4308  -23.8778   10.7252 H   0  0  0  0  0  0  0  0  0  0  0  0
  -10.9366  -27.3786   15.8766 H   0  0  0  0  0  0  0  0  0  0  0  0
  -11.2767  -25.7565   15.5727 H   0  0  0  0  0  0  0  0  0  0  0  0
   -8.9733  -26.7712   14.6750 H   0  0  0  0  0  0  0  0  0  0  0  0
   -9.7586  -25.3402   13.9879 H   0  0  0  0  0  0  0  0  0  0  0  0
  1  2  1  0
  2  3  2  0
  2  4  1  0
  4  5  1  0
  5  6  1  0
  5  7  1  0
  7  8  1  0
  8  9  1  0
  9 10  1  0
 10 11  1  0
 11 12  2  0
 11 13  1  0
 13 14  1  0
 13 15  2  3
 15 16  1  0
 16 17  2  0
 17 18  1  0
 18 19  2  0
 19 20  1  0
 20 21  2  0
 10 22  1  0
 22 23  1  0
 23  7  1  0
 21 16  1  0
  1 24  1  0
  1 25  1  0
  1 26  1  0
  4 27  1  0
  5 28  1  0
  6 29  1  0
  6 30  1  0
  6 31  1  0
  7 32  1  0
  8 33  1  0
  8 34  1  0
  9 35  1  0
  9 36  1  0
 14 37  1  0
 14 38  1  0
 14 39  1  0
 15 40  1  0
 17 41  1  0
 18 42  1  0
 19 43  1  0
 21 44  1  0
 22 45  1  0
 22 46  1  0
 23 47  1  0
 23 48  1  0
M  END
>  <Energy>  (1114) 
83.971599657094885

>  <compound_id>  (1114) 
13945

>  <target_id>  (1114) 
1

>  <reference_id>  (1114) 
48

>  <inspiration_ids>  (1114) 
[9, 48]

>  <energy_score>  (1114) 
30.6839375568847

>  <distance_score>  (1114) 
3.0304862591154405

>  <path>  (1114) 
/opt/xchem-fragalysis-2/maxwin/BulkDock/SCRATCH/511014/C13945-P48/C13945-P48.minimised.mol

>  <scratch_subdir>  (1114) 
/opt/xchem-fragalysis-2/maxwin/BulkDock/SCRATCH/511014/C13945-P48

>  <fragmenstein_runtime>  (1114) 
4.526803255081177

>  <fragmenstein_outcome>  (1114) 
too moved

>  <fragmenstein_mode>  (1114) 
expansion

>  <fragmenstein_error>  (1114) 


$$$$
C13946-P9
     RDKit          3D

 31 32  0  0  0  0  0  0  0  0999 V2000
  -11.5987  -25.3356   10.7685 C   0  0  0  0  0  0  0  0  0  0  0  0
  -11.5607  -25.6688   11.9175 C   0  0  0  0  0  0  0  0  0  0  0  0
  -11.6979  -26.3202   13.2183 C   0  0  0  0  0  0  0  0  0  0  0  0
  -13.0089  -25.9132   13.8836 C   0  0  0  0  0  0  0  0  0  0  0  0
  -13.1605  -26.6249   15.2220 C   0  0  0  0  0  0  0  0  0  0  0  0
  -12.0005  -26.4099   16.0868 N   0  0  0  0  0  0  0  0  0  0  0  0
  -10.7487  -26.8259   15.4505 C   0  0  0  0  0  0  0  0  0  0  0  0
  -10.5165  -26.0707   14.1446 C   0  0  0  0  0  0  0  0  0  0  0  0
  -11.6841  -25.0656    9.3436 C   0  0  0  0  0  0  0  0  0  0  0  0
  -12.7108  -25.8297    8.6024 C   0  0  0  0  0  0  0  0  0  0  0  0
  -12.4389  -27.0940    8.0838 C   0  0  0  0  0  0  0  0  0  0  0  0
  -13.3441  -27.6556    7.2024 C   0  0  0  0  0  0  0  0  0  0  0  0
  -14.4892  -26.9363    6.8981 C   0  0  0  0  0  0  0  0  0  0  0  0
  -14.8011  -25.7333    7.4262 N   0  0  0  0  0  0  0  0  0  0  0  0
  -13.9074  -25.2081    8.2760 C   0  0  0  0  0  0  0  0  0  0  0  0
  -11.7460  -27.4023   13.0255 H   0  0  0  0  0  0  0  0  0  0  0  0
  -13.8616  -26.1658   13.2405 H   0  0  0  0  0  0  0  0  0  0  0  0
  -13.0433  -24.8258   14.0295 H   0  0  0  0  0  0  0  0  0  0  0  0
  -13.3114  -27.6998   15.0639 H   0  0  0  0  0  0  0  0  0  0  0  0
  -14.0551  -26.2490   15.7304 H   0  0  0  0  0  0  0  0  0  0  0  0
  -12.1264  -26.9238   16.9593 H   0  0  0  0  0  0  0  0  0  0  0  0
  -10.7632  -27.9080   15.2700 H   0  0  0  0  0  0  0  0  0  0  0  0
   -9.9141  -26.6372   16.1309 H   0  0  0  0  0  0  0  0  0  0  0  0
   -9.5853  -26.4175   13.6804 H   0  0  0  0  0  0  0  0  0  0  0  0
  -10.3925  -24.9976   14.3403 H   0  0  0  0  0  0  0  0  0  0  0  0
  -11.9194  -24.0060    9.1977 H   0  0  0  0  0  0  0  0  0  0  0  0
  -10.7221  -25.2884    8.8678 H   0  0  0  0  0  0  0  0  0  0  0  0
  -11.5084  -27.6058    8.3130 H   0  0  0  0  0  0  0  0  0  0  0  0
  -13.1611  -28.6222    6.7475 H   0  0  0  0  0  0  0  0  0  0  0  0
  -15.2229  -27.3342    6.2019 H   0  0  0  0  0  0  0  0  0  0  0  0
  -14.1660  -24.2242    8.6562 H   0  0  0  0  0  0  0  0  0  0  0  0
  1  2  3  0
  2  3  1  0
  3  4  1  0
  4  5  1  0
  5  6  1  0
  6  7  1  0
  7  8  1  0
  1  9  1  0
  9 10  1  0
 10 11  2  0
 11 12  1  0
 12 13  2  0
 13 14  1  0
 14 15  2  0
  8  3  1  0
 15 10  1  0
  3 16  1  0
  4 17  1  0
  4 18  1  0
  5 19  1  0
  5 20  1  0
  6 21  1  0
  7 22  1  0
  7 23  1  0
  8 24  1  0
  8 25  1  0
  9 26  1  0
  9 27  1  0
 11 28  1  0
 12 29  1  0
 13 30  1  0
 15 31  1  0
M  END
>  <Energy>  (1115) 
22.880759668830883

>  <compound_id>  (1115) 
13946

>  <target_id>  (1115) 
1

>  <reference_id>  (1115) 
9

>  <inspiration_ids>  (1115) 
[9, 48]

>  <energy_score>  (1115) 
-11.181661471569985

>  <distance_score>  (1115) 
1.5546888962538985

>  <path>  (1115) 
/opt/xchem-fragalysis-2/maxwin/BulkDock/SCRATCH/511014/C13946-P9/C13946-P9.minimised.mol

>  <scratch_subdir>  (1115) 
/opt/xchem-fragalysis-2/maxwin/BulkDock/SCRATCH/511014/C13946-P9

>  <fragmenstein_runtime>  (1115) 
1.1641950607299805

>  <fragmenstein_outcome>  (1115) 
too moved

>  <fragmenstein_mode>  (1115) 
expansion

>  <fragmenstein_error>  (1115) 


$$$$
C13946-P48
     RDKit          3D

 31 32  0  0  0  0  0  0  0  0999 V2000
  -11.5577  -25.3835   10.8933 C   0  0  0  0  0  0  0  0  0  0  0  0
  -11.4495  -25.8376   11.9950 C   0  0  0  0  0  0  0  0  0  0  0  0
  -11.4437  -26.6857   13.1865 C   0  0  0  0  0  0  0  0  0  0  0  0
  -12.8822  -27.0266   13.6064 C   0  0  0  0  0  0  0  0  0  0  0  0
  -13.3047  -26.2454   14.8412 C   0  0  0  0  0  0  0  0  0  0  0  0
  -12.4131  -26.4494   15.9848 N   0  0  0  0  0  0  0  0  0  0  0  0
  -11.0374  -26.7926   15.6170 C   0  0  0  0  0  0  0  0  0  0  0  0
  -10.6121  -26.1080   14.3256 C   0  0  0  0  0  0  0  0  0  0  0  0
  -11.6679  -25.0166    9.4954 C   0  0  0  0  0  0  0  0  0  0  0  0
  -12.6985  -25.7289    8.7064 C   0  0  0  0  0  0  0  0  0  0  0  0
  -12.4648  -27.0056    8.1962 C   0  0  0  0  0  0  0  0  0  0  0  0
  -13.3497  -27.5215    7.2666 C   0  0  0  0  0  0  0  0  0  0  0  0
  -14.4400  -26.7462    6.9054 C   0  0  0  0  0  0  0  0  0  0  0  0
  -14.7165  -25.5285    7.4195 N   0  0  0  0  0  0  0  0  0  0  0  0
  -13.8418  -25.0478    8.3158 C   0  0  0  0  0  0  0  0  0  0  0  0
  -10.9760  -27.6355   12.8877 H   0  0  0  0  0  0  0  0  0  0  0  0
  -12.9388  -28.0991   13.8393 H   0  0  0  0  0  0  0  0  0  0  0  0
  -13.6007  -26.8580   12.7946 H   0  0  0  0  0  0  0  0  0  0  0  0
  -14.3238  -26.5264   15.1298 H   0  0  0  0  0  0  0  0  0  0  0  0
  -13.3394  -25.1771   14.6001 H   0  0  0  0  0  0  0  0  0  0  0  0
  -12.7861  -27.1690   16.6037 H   0  0  0  0  0  0  0  0  0  0  0  0
  -10.9505  -27.8813   15.5059 H   0  0  0  0  0  0  0  0  0  0  0  0
  -10.3680  -26.5218   16.4333 H   0  0  0  0  0  0  0  0  0  0  0  0
   -9.5474  -26.2873   14.1363 H   0  0  0  0  0  0  0  0  0  0  0  0
  -10.7350  -25.0202   14.4098 H   0  0  0  0  0  0  0  0  0  0  0  0
  -11.8768  -23.9458    9.4253 H   0  0  0  0  0  0  0  0  0  0  0  0
  -10.7171  -25.2367    8.9971 H   0  0  0  0  0  0  0  0  0  0  0  0
  -11.5735  -27.5632    8.4705 H   0  0  0  0  0  0  0  0  0  0  0  0
  -13.1913  -28.4958    6.8191 H   0  0  0  0  0  0  0  0  0  0  0  0
  -15.1560  -27.1064    6.1714 H   0  0  0  0  0  0  0  0  0  0  0  0
  -14.0694  -24.0506    8.6808 H   0  0  0  0  0  0  0  0  0  0  0  0
  1  2  3  0
  2  3  1  0
  3  4  1  0
  4  5  1  0
  5  6  1  0
  6  7  1  0
  7  8  1  0
  1  9  1  0
  9 10  1  0
 10 11  2  0
 11 12  1  0
 12 13  2  0
 13 14  1  0
 14 15  2  0
  8  3  1  0
 15 10  1  0
  3 16  1  0
  4 17  1  0
  4 18  1  0
  5 19  1  0
  5 20  1  0
  6 21  1  0
  7 22  1  0
  7 23  1  0
  8 24  1  0
  8 25  1  0
  9 26  1  0
  9 27  1  0
 11 28  1  0
 12 29  1  0
 13 30  1  0
 15 31  1  0
M  END
>  <Energy>  (1116) 
30.626769187495512

>  <compound_id>  (1116) 
13946

>  <target_id>  (1116) 
1

>  <reference_id>  (1116) 
48

>  <inspiration_ids>  (1116) 
[9, 48]

>  <energy_score>  (1116) 
-3.4356519529047667

>  <distance_score>  (1116) 
1.5561217485180368

>  <path>  (1116) 
/opt/xchem-fragalysis-2/maxwin/BulkDock/SCRATCH/511014/C13946-P48/C13946-P48.minimised.mol

>  <scratch_subdir>  (1116) 
/opt/xchem-fragalysis-2/maxwin/BulkDock/SCRATCH/511014/C13946-P48

>  <fragmenstein_runtime>  (1116) 
1.0856475830078125

>  <fragmenstein_outcome>  (1116) 
too moved

>  <fragmenstein_mode>  (1116) 
expansion

>  <fragmenstein_error>  (1116) 


$$$$
C13947-P9
     RDKit          3D

 32 33  0  0  0  0  0  0  0  0999 V2000
  -11.8370  -23.9243   13.4024 O   0  0  0  0  0  0  0  0  0  0  0  0
  -11.5517  -25.3071   13.2331 C   0  0  0  0  0  0  0  0  0  0  0  0
  -10.9938  -25.4686   11.8893 C   0  0  0  0  0  0  0  0  0  0  0  0
  -10.6529  -25.7227   10.7698 C   0  0  0  0  0  0  0  0  0  0  0  0
  -10.3977  -26.1743    9.4006 C   0  0  0  0  0  0  0  0  0  0  0  0
  -11.6299  -26.0364    8.5517 C   0  0  0  0  0  0  0  0  0  0  0  0
  -11.9659  -27.0344    7.6389 C   0  0  0  0  0  0  0  0  0  0  0  0
  -13.0635  -26.8590    6.8069 C   0  0  0  0  0  0  0  0  0  0  0  0
  -13.7971  -25.6890    6.9176 C   0  0  0  0  0  0  0  0  0  0  0  0
  -13.5188  -24.7050    7.7949 N   0  0  0  0  0  0  0  0  0  0  0  0
  -12.4388  -24.8989    8.5806 C   0  0  0  0  0  0  0  0  0  0  0  0
  -12.8635  -26.0975   13.3383 C   0  0  0  0  0  0  0  0  0  0  0  0
  -13.2276  -26.3400   14.7965 C   0  0  0  0  0  0  0  0  0  0  0  0
  -12.2057  -27.0760   15.5406 N   0  0  0  0  0  0  0  0  0  0  0  0
  -10.8773  -27.0568   14.9331 C   0  0  0  0  0  0  0  0  0  0  0  0
  -10.5275  -25.7207   14.2947 C   0  0  0  0  0  0  0  0  0  0  0  0
  -12.3633  -23.6346   12.6378 H   0  0  0  0  0  0  0  0  0  0  0  0
   -9.5679  -25.6295    8.9412 H   0  0  0  0  0  0  0  0  0  0  0  0
  -10.0908  -27.2272    9.4387 H   0  0  0  0  0  0  0  0  0  0  0  0
  -11.3693  -27.9389    7.5537 H   0  0  0  0  0  0  0  0  0  0  0  0
  -13.3400  -27.6145    6.0799 H   0  0  0  0  0  0  0  0  0  0  0  0
  -14.6603  -25.5113    6.2824 H   0  0  0  0  0  0  0  0  0  0  0  0
  -12.2377  -24.0714    9.2514 H   0  0  0  0  0  0  0  0  0  0  0  0
  -12.7830  -27.0677   12.8285 H   0  0  0  0  0  0  0  0  0  0  0  0
  -13.6834  -25.5538   12.8514 H   0  0  0  0  0  0  0  0  0  0  0  0
  -13.4156  -25.3809   15.2906 H   0  0  0  0  0  0  0  0  0  0  0  0
  -14.1662  -26.9021   14.8515 H   0  0  0  0  0  0  0  0  0  0  0  0
  -12.1679  -26.7312   16.4991 H   0  0  0  0  0  0  0  0  0  0  0  0
  -10.1340  -27.3058   15.6994 H   0  0  0  0  0  0  0  0  0  0  0  0
  -10.8168  -27.8545   14.1827 H   0  0  0  0  0  0  0  0  0  0  0  0
   -9.5217  -25.7937   13.8644 H   0  0  0  0  0  0  0  0  0  0  0  0
  -10.4570  -24.9565   15.0723 H   0  0  0  0  0  0  0  0  0  0  0  0
  1  2  1  0
  2  3  1  0
  3  4  3  0
  4  5  1  0
  5  6  1  0
  6  7  2  0
  7  8  1  0
  8  9  2  0
  9 10  1  0
 10 11  2  0
  2 12  1  0
 12 13  1  0
 13 14  1  0
 14 15  1  0
 15 16  1  0
 16  2  1  0
 11  6  1  0
  1 17  1  0
  5 18  1  0
  5 19  1  0
  7 20  1  0
  8 21  1  0
  9 22  1  0
 11 23  1  0
 12 24  1  0
 12 25  1  0
 13 26  1  0
 13 27  1  0
 14 28  1  0
 15 29  1  0
 15 30  1  0
 16 31  1  0
 16 32  1  0
M  END
>  <Energy>  (1117) 
22.921805736059007

>  <compound_id>  (1117) 
13947

>  <target_id>  (1117) 
1

>  <reference_id>  (1117) 
9

>  <inspiration_ids>  (1117) 
[9, 48]

>  <energy_score>  (1117) 
-22.07734330939914

>  <distance_score>  (1117) 
1.0568605400098081

>  <path>  (1117) 
/opt/xchem-fragalysis-2/maxwin/BulkDock/SCRATCH/511014/C13947-P9/C13947-P9.minimised.mol

>  <scratch_subdir>  (1117) 
/opt/xchem-fragalysis-2/maxwin/BulkDock/SCRATCH/511014/C13947-P9

>  <fragmenstein_runtime>  (1117) 
1.2047626972198486

>  <fragmenstein_outcome>  (1117) 
too moved

>  <fragmenstein_mode>  (1117) 
expansion

>  <fragmenstein_error>  (1117) 


$$$$
C13947-P48
     RDKit          3D

 32 33  0  0  0  0  0  0  0  0999 V2000
  -11.8826  -23.7615   13.4600 O   0  0  0  0  0  0  0  0  0  0  0  0
  -11.6452  -25.1537   13.2828 C   0  0  0  0  0  0  0  0  0  0  0  0
  -11.0324  -25.3423   11.9644 C   0  0  0  0  0  0  0  0  0  0  0  0
  -10.6610  -25.6441   10.8661 C   0  0  0  0  0  0  0  0  0  0  0  0
  -10.3811  -26.1652    9.5255 C   0  0  0  0  0  0  0  0  0  0  0  0
  -11.5853  -26.0405    8.6343 C   0  0  0  0  0  0  0  0  0  0  0  0
  -11.9058  -27.0593    7.7391 C   0  0  0  0  0  0  0  0  0  0  0  0
  -12.9764  -26.8950    6.8694 C   0  0  0  0  0  0  0  0  0  0  0  0
  -13.6991  -25.7142    6.9252 C   0  0  0  0  0  0  0  0  0  0  0  0
  -13.4339  -24.7087    7.7819 N   0  0  0  0  0  0  0  0  0  0  0  0
  -12.3801  -24.8935    8.6048 C   0  0  0  0  0  0  0  0  0  0  0  0
  -12.9888  -25.8990   13.3276 C   0  0  0  0  0  0  0  0  0  0  0  0
  -13.3195  -26.3451   14.7458 C   0  0  0  0  0  0  0  0  0  0  0  0
  -12.3178  -27.2488   15.3114 N   0  0  0  0  0  0  0  0  0  0  0  0
  -10.9596  -27.0427   14.8103 C   0  0  0  0  0  0  0  0  0  0  0  0
  -10.6918  -25.6071   14.3891 C   0  0  0  0  0  0  0  0  0  0  0  0
  -12.2481  -23.4097   12.6301 H   0  0  0  0  0  0  0  0  0  0  0  0
   -9.5264  -25.6607    9.0655 H   0  0  0  0  0  0  0  0  0  0  0  0
  -10.1013  -27.2220    9.6206 H   0  0  0  0  0  0  0  0  0  0  0  0
  -11.3182  -27.9727    7.6976 H   0  0  0  0  0  0  0  0  0  0  0  0
  -13.2404  -27.6678    6.1562 H   0  0  0  0  0  0  0  0  0  0  0  0
  -14.5413  -25.5451    6.2602 H   0  0  0  0  0  0  0  0  0  0  0  0
  -12.1851  -24.0500    9.2570 H   0  0  0  0  0  0  0  0  0  0  0  0
  -12.9702  -26.7908   12.6854 H   0  0  0  0  0  0  0  0  0  0  0  0
  -13.7982  -25.2591   12.9535 H   0  0  0  0  0  0  0  0  0  0  0  0
  -13.4272  -25.4693   15.3935 H   0  0  0  0  0  0  0  0  0  0  0  0
  -14.2887  -26.8557   14.7532 H   0  0  0  0  0  0  0  0  0  0  0  0
  -12.3384  -27.1853   16.3291 H   0  0  0  0  0  0  0  0  0  0  0  0
  -10.2456  -27.3408   15.5868 H   0  0  0  0  0  0  0  0  0  0  0  0
  -10.7903  -27.7176   13.9627 H   0  0  0  0  0  0  0  0  0  0  0  0
   -9.6469  -25.5046   14.0765 H   0  0  0  0  0  0  0  0  0  0  0  0
  -10.8056  -24.9565   15.2587 H   0  0  0  0  0  0  0  0  0  0  0  0
  1  2  1  0
  2  3  1  0
  3  4  3  0
  4  5  1  0
  5  6  1  0
  6  7  2  0
  7  8  1  0
  8  9  2  0
  9 10  1  0
 10 11  2  0
  2 12  1  0
 12 13  1  0
 13 14  1  0
 14 15  1  0
 15 16  1  0
 16  2  1  0
 11  6  1  0
  1 17  1  0
  5 18  1  0
  5 19  1  0
  7 20  1  0
  8 21  1  0
  9 22  1  0
 11 23  1  0
 12 24  1  0
 12 25  1  0
 13 26  1  0
 13 27  1  0
 14 28  1  0
 15 29  1  0
 15 30  1  0
 16 31  1  0
 16 32  1  0
M  END
>  <Energy>  (1118) 
22.466970944226823

>  <compound_id>  (1118) 
13947

>  <target_id>  (1118) 
1

>  <reference_id>  (1118) 
48

>  <inspiration_ids>  (1118) 
[9, 48]

>  <energy_score>  (1118) 
-22.532178101230905

>  <distance_score>  (1118) 
1.026473820073315

>  <path>  (1118) 
/opt/xchem-fragalysis-2/maxwin/BulkDock/SCRATCH/511014/C13947-P48/C13947-P48.minimised.mol

>  <scratch_subdir>  (1118) 
/opt/xchem-fragalysis-2/maxwin/BulkDock/SCRATCH/511014/C13947-P48

>  <fragmenstein_runtime>  (1118) 
1.1342287063598633

>  <fragmenstein_outcome>  (1118) 
too moved

>  <fragmenstein_mode>  (1118) 
expansion

>  <fragmenstein_error>  (1118) 


$$$$
C13948-P9
     RDKit          3D

 43 44  0  0  0  0  0  0  0  0999 V2000
   -9.6831  -22.4739   13.3833 C   0  0  0  0  0  0  0  0  0  0  0  0
  -10.6106  -23.6468   13.2043 C   0  0  0  0  0  0  0  0  0  0  0  0
  -10.5422  -24.1777   11.8499 C   0  0  0  0  0  0  0  0  0  0  0  0
  -10.4745  -24.6776   10.8085 N   0  0  0  0  0  0  0  0  0  0  0  0
  -10.2503  -24.7692   14.1581 C   0  0  0  0  0  0  0  0  0  0  0  0
  -11.2965  -25.7381   14.1697 N   0  0  0  0  0  0  0  0  0  0  0  0
  -12.3149  -26.1024   15.2727 C   0  0  0  0  0  0  0  0  0  0  0  0
  -12.4084  -25.7208   16.3711 O   0  0  0  0  0  0  0  0  0  0  0  0
  -13.2370  -27.2291   14.7332 C   0  0  0  0  0  0  0  0  0  0  0  0
  -13.4678  -27.2831   13.2186 C   0  0  0  0  0  0  0  0  0  0  0  0
  -12.4511  -28.1393   12.4516 C   0  0  0  0  0  0  0  0  0  0  0  0
  -11.1935  -28.5680   13.2157 C   0  0  0  0  0  0  0  0  0  0  0  0
  -11.3879  -28.8136   14.7175 C   0  0  0  0  0  0  0  0  0  0  0  0
  -12.7429  -28.5329   15.2073 N   0  0  0  0  0  0  0  0  0  0  0  0
  -12.8037  -28.6712   16.6737 C   0  0  0  0  0  0  0  0  0  0  0  0
  -14.2017  -28.6784   17.2264 C   0  0  0  0  0  0  0  0  0  0  0  0
  -14.6339  -27.7129   18.1355 C   0  0  0  0  0  0  0  0  0  0  0  0
  -15.9386  -27.7578   18.6201 C   0  0  0  0  0  0  0  0  0  0  0  0
  -16.7655  -28.7824   18.1917 C   0  0  0  0  0  0  0  0  0  0  0  0
  -16.3804  -29.7454   17.3295 N   0  0  0  0  0  0  0  0  0  0  0  0
  -15.1135  -29.6651   16.8602 C   0  0  0  0  0  0  0  0  0  0  0  0
   -9.5299  -22.2544   14.4436 H   0  0  0  0  0  0  0  0  0  0  0  0
   -8.7018  -22.6372   12.9336 H   0  0  0  0  0  0  0  0  0  0  0  0
  -10.1046  -21.5900   12.9192 H   0  0  0  0  0  0  0  0  0  0  0  0
  -11.6439  -23.3409   13.3761 H   0  0  0  0  0  0  0  0  0  0  0  0
   -9.3610  -25.3092   13.8270 H   0  0  0  0  0  0  0  0  0  0  0  0
  -10.0899  -24.4070   15.1654 H   0  0  0  0  0  0  0  0  0  0  0  0
  -11.5550  -26.1925   13.3105 H   0  0  0  0  0  0  0  0  0  0  0  0
  -14.2257  -27.0100   15.1586 H   0  0  0  0  0  0  0  0  0  0  0  0
  -13.5174  -26.2738   12.7909 H   0  0  0  0  0  0  0  0  0  0  0  0
  -14.4607  -27.7165   13.0330 H   0  0  0  0  0  0  0  0  0  0  0  0
  -12.1669  -27.6385   11.5182 H   0  0  0  0  0  0  0  0  0  0  0  0
  -12.9687  -29.0563   12.1371 H   0  0  0  0  0  0  0  0  0  0  0  0
  -10.3864  -27.8441   13.0588 H   0  0  0  0  0  0  0  0  0  0  0  0
  -10.8185  -29.4912   12.7536 H   0  0  0  0  0  0  0  0  0  0  0  0
  -10.6312  -28.2440   15.2735 H   0  0  0  0  0  0  0  0  0  0  0  0
  -11.1623  -29.8698   14.9147 H   0  0  0  0  0  0  0  0  0  0  0  0
  -12.3953  -29.6557   16.9342 H   0  0  0  0  0  0  0  0  0  0  0  0
  -12.1672  -27.9532   17.2023 H   0  0  0  0  0  0  0  0  0  0  0  0
  -13.9667  -26.9117   18.4487 H   0  0  0  0  0  0  0  0  0  0  0  0
  -16.3072  -27.0068   19.3086 H   0  0  0  0  0  0  0  0  0  0  0  0
  -17.7922  -28.8552   18.5384 H   0  0  0  0  0  0  0  0  0  0  0  0
  -14.8393  -30.4425   16.1512 H   0  0  0  0  0  0  0  0  0  0  0  0
  1  2  1  0
  2  3  1  0
  3  4  3  0
  2  5  1  0
  5  6  1  0
  6  7  1  0
  7  8  2  0
  7  9  1  0
  9 10  1  0
 10 11  1  0
 11 12  1  0
 12 13  1  0
 13 14  1  0
 14 15  1  0
 15 16  1  0
 16 17  2  0
 17 18  1  0
 18 19  2  0
 19 20  1  0
 20 21  2  0
 14  9  1  0
 21 16  1  0
  1 22  1  0
  1 23  1  0
  1 24  1  0
  2 25  1  0
  5 26  1  0
  5 27  1  0
  6 28  1  0
  9 29  1  0
 10 30  1  0
 10 31  1  0
 11 32  1  0
 11 33  1  0
 12 34  1  0
 12 35  1  0
 13 36  1  0
 13 37  1  0
 15 38  1  0
 15 39  1  0
 17 40  1  0
 18 41  1  0
 19 42  1  0
 21 43  1  0
M  END
>  <Energy>  (1119) 
77.873688453474642

>  <compound_id>  (1119) 
13948

>  <target_id>  (1119) 
1

>  <reference_id>  (1119) 
9

>  <inspiration_ids>  (1119) 
[9, 48]

>  <energy_score>  (1119) 
3.0860327016238216

>  <distance_score>  (1119) 
2.285954326783222

>  <path>  (1119) 
/opt/xchem-fragalysis-2/maxwin/BulkDock/SCRATCH/511014/C13948-P9/C13948-P9.minimised.mol

>  <scratch_subdir>  (1119) 
/opt/xchem-fragalysis-2/maxwin/BulkDock/SCRATCH/511014/C13948-P9

>  <fragmenstein_runtime>  (1119) 
5.234225273132324

>  <fragmenstein_outcome>  (1119) 
too moved

>  <fragmenstein_mode>  (1119) 
expansion

>  <fragmenstein_error>  (1119) 


$$$$
C13948-P48
     RDKit          3D

 43 44  0  0  0  0  0  0  0  0999 V2000
   -9.9854  -22.0162   12.8416 C   0  0  0  0  0  0  0  0  0  0  0  0
  -10.8404  -23.2562   12.9240 C   0  0  0  0  0  0  0  0  0  0  0  0
  -10.6068  -24.0934   11.7521 C   0  0  0  0  0  0  0  0  0  0  0  0
  -10.3459  -24.7564   10.8382 N   0  0  0  0  0  0  0  0  0  0  0  0
  -10.4425  -24.0519   14.1512 C   0  0  0  0  0  0  0  0  0  0  0  0
  -11.2803  -25.1901   14.3635 N   0  0  0  0  0  0  0  0  0  0  0  0
  -12.8142  -25.3478   14.2314 C   0  0  0  0  0  0  0  0  0  0  0  0
  -13.6394  -24.5541   14.0039 O   0  0  0  0  0  0  0  0  0  0  0  0
  -13.1273  -26.8621   14.3515 C   0  0  0  0  0  0  0  0  0  0  0  0
  -12.9291  -27.4778   12.9613 C   0  0  0  0  0  0  0  0  0  0  0  0
  -11.4702  -27.7729   12.6433 C   0  0  0  0  0  0  0  0  0  0  0  0
  -10.8665  -28.6571   13.7224 C   0  0  0  0  0  0  0  0  0  0  0  0
  -11.0926  -28.1829   15.1568 C   0  0  0  0  0  0  0  0  0  0  0  0
  -12.3815  -27.5652   15.4047 N   0  0  0  0  0  0  0  0  0  0  0  0
  -12.6497  -27.1548   16.7768 C   0  0  0  0  0  0  0  0  0  0  0  0
  -13.8050  -27.9180   17.3677 C   0  0  0  0  0  0  0  0  0  0  0  0
  -15.0122  -27.2914   17.6749 C   0  0  0  0  0  0  0  0  0  0  0  0
  -16.0690  -28.0282   18.2028 C   0  0  0  0  0  0  0  0  0  0  0  0
  -15.8794  -29.3815   18.4182 C   0  0  0  0  0  0  0  0  0  0  0  0
  -14.7226  -30.0256   18.1575 N   0  0  0  0  0  0  0  0  0  0  0  0
  -13.7213  -29.2815   17.6286 C   0  0  0  0  0  0  0  0  0  0  0  0
   -8.9441  -22.2395   13.0994 H   0  0  0  0  0  0  0  0  0  0  0  0
   -9.9677  -21.5845   11.8418 H   0  0  0  0  0  0  0  0  0  0  0  0
  -10.3759  -21.2694   13.5352 H   0  0  0  0  0  0  0  0  0  0  0  0
  -11.8940  -22.9683   12.9536 H   0  0  0  0  0  0  0  0  0  0  0  0
  -10.3786  -23.4526   15.0519 H   0  0  0  0  0  0  0  0  0  0  0  0
   -9.4536  -24.4826   14.0061 H   0  0  0  0  0  0  0  0  0  0  0  0
  -10.8604  -26.0914   14.4835 H   0  0  0  0  0  0  0  0  0  0  0  0
  -14.1974  -26.9258   14.5898 H   0  0  0  0  0  0  0  0  0  0  0  0
  -13.3411  -26.8235   12.1831 H   0  0  0  0  0  0  0  0  0  0  0  0
  -13.4946  -28.4179   12.9098 H   0  0  0  0  0  0  0  0  0  0  0  0
  -10.8830  -26.8631   12.5244 H   0  0  0  0  0  0  0  0  0  0  0  0
  -11.4106  -28.2919   11.6790 H   0  0  0  0  0  0  0  0  0  0  0  0
   -9.7926  -28.7824   13.5410 H   0  0  0  0  0  0  0  0  0  0  0  0
  -11.3102  -29.6572   13.6219 H   0  0  0  0  0  0  0  0  0  0  0  0
  -10.2630  -27.5371   15.4693 H   0  0  0  0  0  0  0  0  0  0  0  0
  -11.0039  -29.0687   15.7941 H   0  0  0  0  0  0  0  0  0  0  0  0
  -11.7757  -27.3239   17.4192 H   0  0  0  0  0  0  0  0  0  0  0  0
  -12.8341  -26.0763   16.8383 H   0  0  0  0  0  0  0  0  0  0  0  0
  -15.1459  -26.2280   17.4852 H   0  0  0  0  0  0  0  0  0  0  0  0
  -17.0193  -27.5570   18.4281 H   0  0  0  0  0  0  0  0  0  0  0  0
  -16.6761  -30.0014   18.8186 H   0  0  0  0  0  0  0  0  0  0  0  0
  -12.8165  -29.8378   17.4070 H   0  0  0  0  0  0  0  0  0  0  0  0
  1  2  1  0
  2  3  1  0
  3  4  3  0
  2  5  1  0
  5  6  1  0
  6  7  1  0
  7  8  2  0
  7  9  1  0
  9 10  1  0
 10 11  1  0
 11 12  1  0
 12 13  1  0
 13 14  1  0
 14 15  1  0
 15 16  1  0
 16 17  2  0
 17 18  1  0
 18 19  2  0
 19 20  1  0
 20 21  2  0
 14  9  1  0
 21 16  1  0
  1 22  1  0
  1 23  1  0
  1 24  1  0
  2 25  1  0
  5 26  1  0
  5 27  1  0
  6 28  1  0
  9 29  1  0
 10 30  1  0
 10 31  1  0
 11 32  1  0
 11 33  1  0
 12 34  1  0
 12 35  1  0
 13 36  1  0
 13 37  1  0
 15 38  1  0
 15 39  1  0
 17 40  1  0
 18 41  1  0
 19 42  1  0
 21 43  1  0
M  END
>  <Energy>  (1120) 
74.20563401086477

>  <compound_id>  (1120) 
13948

>  <target_id>  (1120) 
1

>  <reference_id>  (1120) 
48

>  <inspiration_ids>  (1120) 
[9, 48]

>  <energy_score>  (1120) 
-0.5820217409867041

>  <distance_score>  (1120) 
1.7042378915449061

>  <path>  (1120) 
/opt/xchem-fragalysis-2/maxwin/BulkDock/SCRATCH/511014/C13948-P48/C13948-P48.minimised.mol

>  <scratch_subdir>  (1120) 
/opt/xchem-fragalysis-2/maxwin/BulkDock/SCRATCH/511014/C13948-P48

>  <fragmenstein_runtime>  (1120) 
5.887481927871704

>  <fragmenstein_outcome>  (1120) 
too moved

>  <fragmenstein_mode>  (1120) 
expansion

>  <fragmenstein_error>  (1120) 


$$$$
C13949-P9
     RDKit          3D

 47 48  0  0  0  0  0  0  0  0999 V2000
  -13.2436  -24.1656   12.8055 C   0  0  0  0  0  0  0  0  0  0  0  0
  -11.9807  -24.6384   12.0943 C   0  0  0  0  0  0  0  0  0  0  0  0
  -10.7382  -24.2467   12.8833 C   0  0  0  0  0  0  0  0  0  0  0  0
  -10.7988  -24.8190   14.1191 F   0  0  0  0  0  0  0  0  0  0  0  0
  -11.9088  -26.1296   11.7168 C   0  0  0  0  0  0  0  0  0  0  0  0
  -10.9317  -26.5234   11.1347 O   0  0  0  0  0  0  0  0  0  0  0  0
  -13.1155  -26.8038   12.0617 N   0  0  0  0  0  0  0  0  0  0  0  0
  -13.5984  -28.1667   11.7185 C   0  0  0  0  0  0  0  0  0  0  0  0
  -12.9870  -27.4408   13.4567 C   0  0  0  0  0  0  0  0  0  0  0  0
  -11.9558  -28.5784   13.9270 C   0  0  0  0  0  0  0  0  0  0  0  0
  -10.6077  -28.8062   13.1966 C   0  0  0  0  0  0  0  0  0  0  0  0
   -9.5196  -27.9147   13.7283 C   0  0  0  0  0  0  0  0  0  0  0  0
   -9.6358  -27.9910   15.2222 C   0  0  0  0  0  0  0  0  0  0  0  0
  -11.1048  -27.8136   15.6017 C   0  0  0  0  0  0  0  0  0  0  0  0
  -12.0906  -28.9492   15.4582 N   0  0  0  0  0  0  0  0  0  0  0  0
  -11.9244  -30.3536   15.6369 C   0  0  0  0  0  0  0  0  0  0  0  0
  -10.9361  -31.0030   15.8585 O   0  0  0  0  0  0  0  0  0  0  0  0
  -13.2326  -31.0724   15.6336 C   0  0  0  0  0  0  0  0  0  0  0  0
  -14.4502  -30.4343   15.8935 C   0  0  0  0  0  0  0  0  0  0  0  0
  -15.6302  -31.1755   15.8696 C   0  0  0  0  0  0  0  0  0  0  0  0
  -15.5516  -32.5311   15.5911 C   0  0  0  0  0  0  0  0  0  0  0  0
  -14.3930  -33.1801   15.3451 N   0  0  0  0  0  0  0  0  0  0  0  0
  -13.2571  -32.4383   15.3810 C   0  0  0  0  0  0  0  0  0  0  0  0
  -13.3397  -24.5703   13.8159 H   0  0  0  0  0  0  0  0  0  0  0  0
  -14.1439  -24.4372   12.2441 H   0  0  0  0  0  0  0  0  0  0  0  0
  -13.2477  -23.0826   12.9036 H   0  0  0  0  0  0  0  0  0  0  0  0
  -11.9454  -24.1222   11.1274 H   0  0  0  0  0  0  0  0  0  0  0  0
   -9.8134  -24.5822   12.4050 H   0  0  0  0  0  0  0  0  0  0  0  0
  -10.6765  -23.1633   13.0207 H   0  0  0  0  0  0  0  0  0  0  0  0
  -13.9566  -28.0313   10.6861 H   0  0  0  0  0  0  0  0  0  0  0  0
  -14.4993  -28.5303   12.2337 H   0  0  0  0  0  0  0  0  0  0  0  0
  -12.8071  -28.9075   11.5718 H   0  0  0  0  0  0  0  0  0  0  0  0
  -13.9858  -27.6431   13.8867 H   0  0  0  0  0  0  0  0  0  0  0  0
  -12.7192  -26.5602   14.0409 H   0  0  0  0  0  0  0  0  0  0  0  0
  -12.4898  -29.4558   13.5264 H   0  0  0  0  0  0  0  0  0  0  0  0
  -10.3000  -29.8495   13.3539 H   0  0  0  0  0  0  0  0  0  0  0  0
  -10.6983  -28.7002   12.1144 H   0  0  0  0  0  0  0  0  0  0  0  0
   -8.5319  -28.2418   13.3880 H   0  0  0  0  0  0  0  0  0  0  0  0
   -9.6548  -26.8851   13.3922 H   0  0  0  0  0  0  0  0  0  0  0  0
   -9.2567  -28.9528   15.5807 H   0  0  0  0  0  0  0  0  0  0  0  0
   -9.0262  -27.2072   15.6842 H   0  0  0  0  0  0  0  0  0  0  0  0
  -11.4955  -26.8151   15.3930 H   0  0  0  0  0  0  0  0  0  0  0  0
  -11.0554  -27.7641   16.7016 H   0  0  0  0  0  0  0  0  0  0  0  0
  -14.4893  -29.3743   16.1266 H   0  0  0  0  0  0  0  0  0  0  0  0
  -16.5885  -30.7083   16.0691 H   0  0  0  0  0  0  0  0  0  0  0  0
  -16.4440  -33.1505   15.5616 H   0  0  0  0  0  0  0  0  0  0  0  0
  -12.3433  -32.9949   15.1872 H   0  0  0  0  0  0  0  0  0  0  0  0
  1  2  1  0
  2  3  1  0
  3  4  1  0
  2  5  1  0
  5  6  2  0
  5  7  1  0
  7  8  1  0
  7  9  1  0
  9 10  1  0
 10 11  1  0
 11 12  1  0
 12 13  1  0
 13 14  1  0
 14 15  1  0
 15 16  1  0
 16 17  2  0
 16 18  1  0
 18 19  2  0
 19 20  1  0
 20 21  2  0
 21 22  1  0
 22 23  2  0
 15 10  1  0
 23 18  1  0
  1 24  1  0
  1 25  1  0
  1 26  1  0
  2 27  1  0
  3 28  1  0
  3 29  1  0
  8 30  1  0
  8 31  1  0
  8 32  1  0
  9 33  1  0
  9 34  1  0
 10 35  1  0
 11 36  1  0
 11 37  1  0
 12 38  1  0
 12 39  1  0
 13 40  1  0
 13 41  1  0
 14 42  1  0
 14 43  1  0
 19 44  1  0
 20 45  1  0
 21 46  1  0
 23 47  1  0
M  END
>  <Energy>  (1121) 
183.13070478084722

>  <compound_id>  (1121) 
13949

>  <target_id>  (1121) 
1

>  <reference_id>  (1121) 
9

>  <inspiration_ids>  (1121) 
[9, 48]

>  <energy_score>  (1121) 
123.8323619332586

>  <distance_score>  (1121) 
3.293577734304898

>  <path>  (1121) 
/opt/xchem-fragalysis-2/maxwin/BulkDock/SCRATCH/511014/C13949-P9/C13949-P9.minimised.mol

>  <scratch_subdir>  (1121) 
/opt/xchem-fragalysis-2/maxwin/BulkDock/SCRATCH/511014/C13949-P9

>  <fragmenstein_runtime>  (1121) 
24.9968364238739

>  <fragmenstein_outcome>  (1121) 
too moved

>  <fragmenstein_mode>  (1121) 
expansion

>  <fragmenstein_error>  (1121) 


$$$$
C13949-P48
     RDKit          3D

 47 48  0  0  0  0  0  0  0  0999 V2000
   -8.2147  -22.4050   12.9103 C   0  0  0  0  0  0  0  0  0  0  0  0
   -9.6246  -22.9054   13.2454 C   0  0  0  0  0  0  0  0  0  0  0  0
  -10.5184  -21.7009   13.1936 C   0  0  0  0  0  0  0  0  0  0  0  0
  -10.0625  -20.8714   12.2267 F   0  0  0  0  0  0  0  0  0  0  0  0
  -10.1925  -24.0582   12.3885 C   0  0  0  0  0  0  0  0  0  0  0  0
   -9.5262  -24.5837   11.5380 O   0  0  0  0  0  0  0  0  0  0  0  0
  -11.5650  -24.2732   12.7670 N   0  0  0  0  0  0  0  0  0  0  0  0
  -12.6179  -25.1276   12.1564 C   0  0  0  0  0  0  0  0  0  0  0  0
  -11.6506  -25.3383   13.8686 C   0  0  0  0  0  0  0  0  0  0  0  0
  -11.2308  -26.8928   13.8356 C   0  0  0  0  0  0  0  0  0  0  0  0
  -10.4022  -27.5313   12.6840 C   0  0  0  0  0  0  0  0  0  0  0  0
   -8.9249  -27.5797   12.9616 C   0  0  0  0  0  0  0  0  0  0  0  0
   -8.7713  -27.9518   14.4074 C   0  0  0  0  0  0  0  0  0  0  0  0
   -9.7431  -27.0860   15.1997 C   0  0  0  0  0  0  0  0  0  0  0  0
  -11.1806  -27.5074   15.3030 N   0  0  0  0  0  0  0  0  0  0  0  0
  -11.7716  -28.8055   15.3120 C   0  0  0  0  0  0  0  0  0  0  0  0
  -11.2795  -29.8900   15.1480 O   0  0  0  0  0  0  0  0  0  0  0  0
  -13.2159  -28.7572   15.6844 C   0  0  0  0  0  0  0  0  0  0  0  0
  -13.7814  -27.6983   16.4025 C   0  0  0  0  0  0  0  0  0  0  0  0
  -15.1389  -27.7282   16.7156 C   0  0  0  0  0  0  0  0  0  0  0  0
  -15.8842  -28.8227   16.3061 C   0  0  0  0  0  0  0  0  0  0  0  0
  -15.3682  -29.8689   15.6247 N   0  0  0  0  0  0  0  0  0  0  0  0
  -14.0432  -29.8167   15.3348 C   0  0  0  0  0  0  0  0  0  0  0  0
   -7.7533  -22.0328   13.8229 H   0  0  0  0  0  0  0  0  0  0  0  0
   -8.1665  -21.5550   12.2283 H   0  0  0  0  0  0  0  0  0  0  0  0
   -7.5561  -23.1614   12.4773 H   0  0  0  0  0  0  0  0  0  0  0  0
   -9.6125  -23.2892   14.2727 H   0  0  0  0  0  0  0  0  0  0  0  0
  -11.5610  -21.9179   12.9915 H   0  0  0  0  0  0  0  0  0  0  0  0
  -10.4362  -21.1497   14.1234 H   0  0  0  0  0  0  0  0  0  0  0  0
  -12.8919  -24.5483   11.2609 H   0  0  0  0  0  0  0  0  0  0  0  0
  -13.5715  -25.1852   12.7014 H   0  0  0  0  0  0  0  0  0  0  0  0
  -12.2891  -26.0640   11.7076 H   0  0  0  0  0  0  0  0  0  0  0  0
  -12.6181  -25.2531   14.4000 H   0  0  0  0  0  0  0  0  0  0  0  0
  -11.0126  -24.8849   14.6345 H   0  0  0  0  0  0  0  0  0  0  0  0
  -12.2153  -27.2936   13.5334 H   0  0  0  0  0  0  0  0  0  0  0  0
  -10.7496  -28.5658   12.5514 H   0  0  0  0  0  0  0  0  0  0  0  0
  -10.5613  -27.0422   11.7213 H   0  0  0  0  0  0  0  0  0  0  0  0
   -8.4177  -28.2974   12.3087 H   0  0  0  0  0  0  0  0  0  0  0  0
   -8.4785  -26.6005   12.7706 H   0  0  0  0  0  0  0  0  0  0  0  0
   -8.9671  -29.0176   14.5621 H   0  0  0  0  0  0  0  0  0  0  0  0
   -7.7415  -27.7698   14.7330 H   0  0  0  0  0  0  0  0  0  0  0  0
   -9.5577  -26.0139   15.0924 H   0  0  0  0  0  0  0  0  0  0  0  0
   -9.4285  -27.2543   16.2391 H   0  0  0  0  0  0  0  0  0  0  0  0
  -13.1755  -26.8596   16.7329 H   0  0  0  0  0  0  0  0  0  0  0  0
  -15.6038  -26.9196   17.2696 H   0  0  0  0  0  0  0  0  0  0  0  0
  -16.9465  -28.8914   16.5249 H   0  0  0  0  0  0  0  0  0  0  0  0
  -13.6608  -30.6775   14.7915 H   0  0  0  0  0  0  0  0  0  0  0  0
  1  2  1  0
  2  3  1  0
  3  4  1  0
  2  5  1  0
  5  6  2  0
  5  7  1  0
  7  8  1  0
  7  9  1  0
  9 10  1  0
 10 11  1  0
 11 12  1  0
 12 13  1  0
 13 14  1  0
 14 15  1  0
 15 16  1  0
 16 17  2  0
 16 18  1  0
 18 19  2  0
 19 20  1  0
 20 21  2  0
 21 22  1  0
 22 23  2  0
 15 10  1  0
 23 18  1  0
  1 24  1  0
  1 25  1  0
  1 26  1  0
  2 27  1  0
  3 28  1  0
  3 29  1  0
  8 30  1  0
  8 31  1  0
  8 32  1  0
  9 33  1  0
  9 34  1  0
 10 35  1  0
 11 36  1  0
 11 37  1  0
 12 38  1  0
 12 39  1  0
 13 40  1  0
 13 41  1  0
 14 42  1  0
 14 43  1  0
 19 44  1  0
 20 45  1  0
 21 46  1  0
 23 47  1  0
M  END
>  <Energy>  (1122) 
195.79264358821777

>  <compound_id>  (1122) 
13949

>  <target_id>  (1122) 
1

>  <reference_id>  (1122) 
48

>  <inspiration_ids>  (1122) 
[9, 48]

>  <energy_score>  (1122) 
136.49430074062803

>  <distance_score>  (1122) 
2.328732290752714

>  <path>  (1122) 
/opt/xchem-fragalysis-2/maxwin/BulkDock/SCRATCH/511014/C13949-P48/C13949-P48.minimised.mol

>  <scratch_subdir>  (1122) 
/opt/xchem-fragalysis-2/maxwin/BulkDock/SCRATCH/511014/C13949-P48

>  <fragmenstein_runtime>  (1122) 
23.81529951095581

>  <fragmenstein_outcome>  (1122) 
too moved

>  <fragmenstein_mode>  (1122) 
expansion

>  <fragmenstein_error>  (1122) 


$$$$
C13950-P9
     RDKit          3D

 46 47  0  0  0  0  0  0  0  0999 V2000
  -12.3885  -27.3975   10.6555 C   0  0  0  0  0  0  0  0  0  0  0  0
  -11.8365  -26.6681    9.4699 C   0  0  0  0  0  0  0  0  0  0  0  0
  -10.5748  -26.3360    9.1419 C   0  0  0  0  0  0  0  0  0  0  0  0
   -9.5197  -26.3857   10.1453 C   0  0  0  0  0  0  0  0  0  0  0  0
   -8.6454  -27.1496   10.1607 O   0  0  0  0  0  0  0  0  0  0  0  0
   -9.9061  -25.2902   11.1560 N   0  0  0  0  0  0  0  0  0  0  0  0
   -9.3593  -24.9749   12.4238 C   0  0  0  0  0  0  0  0  0  0  0  0
   -9.6628  -26.1555   13.3125 C   0  0  0  0  0  0  0  0  0  0  0  0
  -10.7250  -25.9235   14.3741 C   0  0  0  0  0  0  0  0  0  0  0  0
  -12.1112  -25.5757   13.8130 C   0  0  0  0  0  0  0  0  0  0  0  0
  -13.2609  -26.1498   14.6512 C   0  0  0  0  0  0  0  0  0  0  0  0
  -12.8840  -26.1488   16.0613 N   0  0  0  0  0  0  0  0  0  0  0  0
  -14.0140  -26.3871   16.9450 C   0  0  0  0  0  0  0  0  0  0  0  0
  -11.8043  -27.0928   16.3471 C   0  0  0  0  0  0  0  0  0  0  0  0
  -10.7858  -27.1933   15.2241 C   0  0  0  0  0  0  0  0  0  0  0  0
  -12.7924  -26.1485    8.5085 C   0  0  0  0  0  0  0  0  0  0  0  0
  -12.9637  -26.7852    7.2853 C   0  0  0  0  0  0  0  0  0  0  0  0
  -13.6826  -26.1370    6.2953 C   0  0  0  0  0  0  0  0  0  0  0  0
  -14.2050  -24.8813    6.5731 C   0  0  0  0  0  0  0  0  0  0  0  0
  -14.0760  -24.2442    7.7584 N   0  0  0  0  0  0  0  0  0  0  0  0
  -13.3687  -24.8939    8.7018 C   0  0  0  0  0  0  0  0  0  0  0  0
  -13.1712  -26.8137   11.1473 H   0  0  0  0  0  0  0  0  0  0  0  0
  -12.8432  -28.3392   10.3264 H   0  0  0  0  0  0  0  0  0  0  0  0
  -11.6188  -27.6591   11.3829 H   0  0  0  0  0  0  0  0  0  0  0  0
  -10.2903  -25.8267    8.2246 H   0  0  0  0  0  0  0  0  0  0  0  0
  -10.7751  -24.8594   10.8714 H   0  0  0  0  0  0  0  0  0  0  0  0
   -8.2835  -24.8847   12.2601 H   0  0  0  0  0  0  0  0  0  0  0  0
   -9.7670  -24.0257   12.7799 H   0  0  0  0  0  0  0  0  0  0  0  0
   -9.9304  -27.0480   12.7328 H   0  0  0  0  0  0  0  0  0  0  0  0
   -8.7502  -26.4602   13.8266 H   0  0  0  0  0  0  0  0  0  0  0  0
  -10.3922  -25.0963   15.0108 H   0  0  0  0  0  0  0  0  0  0  0  0
  -12.2025  -24.4845   13.7523 H   0  0  0  0  0  0  0  0  0  0  0  0
  -12.2164  -25.9282   12.7913 H   0  0  0  0  0  0  0  0  0  0  0  0
  -13.5121  -27.1634   14.3127 H   0  0  0  0  0  0  0  0  0  0  0  0
  -14.1482  -25.5278   14.4804 H   0  0  0  0  0  0  0  0  0  0  0  0
  -14.4810  -27.3624   16.7671 H   0  0  0  0  0  0  0  0  0  0  0  0
  -13.7050  -26.3384   17.9955 H   0  0  0  0  0  0  0  0  0  0  0  0
  -14.7773  -25.6126   16.8097 H   0  0  0  0  0  0  0  0  0  0  0  0
  -12.1915  -28.1015   16.5440 H   0  0  0  0  0  0  0  0  0  0  0  0
  -11.3005  -26.7707   17.2635 H   0  0  0  0  0  0  0  0  0  0  0  0
   -9.8029  -27.4223   15.6549 H   0  0  0  0  0  0  0  0  0  0  0  0
  -11.0511  -28.0459   14.5834 H   0  0  0  0  0  0  0  0  0  0  0  0
  -12.5034  -27.7483    7.0818 H   0  0  0  0  0  0  0  0  0  0  0  0
  -13.8226  -26.5874    5.3188 H   0  0  0  0  0  0  0  0  0  0  0  0
  -14.7675  -24.3374    5.8183 H   0  0  0  0  0  0  0  0  0  0  0  0
  -13.2384  -24.3463    9.6298 H   0  0  0  0  0  0  0  0  0  0  0  0
  1  2  1  0
  2  3  2  3
  3  4  1  0
  4  5  2  0
  4  6  1  0
  6  7  1  0
  7  8  1  0
  8  9  1  0
  9 10  1  0
 10 11  1  0
 11 12  1  0
 12 13  1  0
 12 14  1  0
 14 15  1  0
  2 16  1  0
 16 17  2  0
 17 18  1  0
 18 19  2  0
 19 20  1  0
 20 21  2  0
 15  9  1  0
 21 16  1  0
  1 22  1  0
  1 23  1  0
  1 24  1  0
  3 25  1  0
  6 26  1  0
  7 27  1  0
  7 28  1  0
  8 29  1  0
  8 30  1  0
  9 31  1  0
 10 32  1  0
 10 33  1  0
 11 34  1  0
 11 35  1  0
 13 36  1  0
 13 37  1  0
 13 38  1  0
 14 39  1  0
 14 40  1  0
 15 41  1  0
 15 42  1  0
 17 43  1  0
 18 44  1  0
 19 45  1  0
 21 46  1  0
M  END
>  <Energy>  (1123) 
51.407040360681115

>  <compound_id>  (1123) 
13950

>  <target_id>  (1123) 
1

>  <reference_id>  (1123) 
9

>  <inspiration_ids>  (1123) 
[9, 48]

>  <energy_score>  (1123) 
-42.36178966384587

>  <distance_score>  (1123) 
1.8809850208441026

>  <path>  (1123) 
/opt/xchem-fragalysis-2/maxwin/BulkDock/SCRATCH/511014/C13950-P9/C13950-P9.minimised.mol

>  <scratch_subdir>  (1123) 
/opt/xchem-fragalysis-2/maxwin/BulkDock/SCRATCH/511014/C13950-P9

>  <fragmenstein_runtime>  (1123) 
3.232619285583496

>  <fragmenstein_outcome>  (1123) 
too moved

>  <fragmenstein_mode>  (1123) 
expansion

>  <fragmenstein_error>  (1123) 


$$$$
C13950-P48
     RDKit          3D

 46 47  0  0  0  0  0  0  0  0999 V2000
  -12.7872  -27.1719   10.8861 C   0  0  0  0  0  0  0  0  0  0  0  0
  -13.2542  -26.1229    9.9118 C   0  0  0  0  0  0  0  0  0  0  0  0
  -13.9771  -25.0284   10.2346 C   0  0  0  0  0  0  0  0  0  0  0  0
  -13.6803  -24.3711   11.5214 C   0  0  0  0  0  0  0  0  0  0  0  0
  -14.4610  -24.1583   12.3587 O   0  0  0  0  0  0  0  0  0  0  0  0
  -12.1596  -24.0693   11.4646 N   0  0  0  0  0  0  0  0  0  0  0  0
  -11.2791  -23.5328   12.4615 C   0  0  0  0  0  0  0  0  0  0  0  0
  -10.4180  -24.6665   12.9988 C   0  0  0  0  0  0  0  0  0  0  0  0
  -11.0146  -25.3656   14.2277 C   0  0  0  0  0  0  0  0  0  0  0  0
  -12.5212  -25.6333   14.1389 C   0  0  0  0  0  0  0  0  0  0  0  0
  -13.0586  -26.6604   15.1200 C   0  0  0  0  0  0  0  0  0  0  0  0
  -12.1581  -26.7331   16.2578 N   0  0  0  0  0  0  0  0  0  0  0  0
  -12.7658  -27.4594   17.3583 C   0  0  0  0  0  0  0  0  0  0  0  0
  -10.8578  -27.2898   15.8582 C   0  0  0  0  0  0  0  0  0  0  0  0
  -10.3104  -26.6805   14.5546 C   0  0  0  0  0  0  0  0  0  0  0  0
  -12.8343  -26.2161    8.5033 C   0  0  0  0  0  0  0  0  0  0  0  0
  -12.6574  -27.4249    7.8386 C   0  0  0  0  0  0  0  0  0  0  0  0
  -12.2364  -27.4252    6.5118 C   0  0  0  0  0  0  0  0  0  0  0  0
  -12.0065  -26.2128    5.8841 C   0  0  0  0  0  0  0  0  0  0  0  0
  -12.1450  -25.0218    6.4884 N   0  0  0  0  0  0  0  0  0  0  0  0
  -12.5224  -25.0541    7.7801 C   0  0  0  0  0  0  0  0  0  0  0  0
  -13.4705  -27.2414   11.7366 H   0  0  0  0  0  0  0  0  0  0  0  0
  -12.7934  -28.1749   10.4505 H   0  0  0  0  0  0  0  0  0  0  0  0
  -11.7698  -26.9680   11.2293 H   0  0  0  0  0  0  0  0  0  0  0  0
  -14.4198  -24.3432    9.5193 H   0  0  0  0  0  0  0  0  0  0  0  0
  -11.7682  -24.4626   10.6200 H   0  0  0  0  0  0  0  0  0  0  0  0
  -11.8555  -23.0288   13.2339 H   0  0  0  0  0  0  0  0  0  0  0  0
  -10.6421  -22.8013   11.9562 H   0  0  0  0  0  0  0  0  0  0  0  0
   -9.4567  -24.2417   13.2974 H   0  0  0  0  0  0  0  0  0  0  0  0
  -10.1956  -25.3974   12.2115 H   0  0  0  0  0  0  0  0  0  0  0  0
  -10.8430  -24.6868   15.0689 H   0  0  0  0  0  0  0  0  0  0  0  0
  -12.7579  -26.0068   13.1544 H   0  0  0  0  0  0  0  0  0  0  0  0
  -13.0624  -24.6962   14.2889 H   0  0  0  0  0  0  0  0  0  0  0  0
  -13.1625  -27.6406   14.6358 H   0  0  0  0  0  0  0  0  0  0  0  0
  -14.0670  -26.3523   15.4236 H   0  0  0  0  0  0  0  0  0  0  0  0
  -12.9779  -28.5032   17.1011 H   0  0  0  0  0  0  0  0  0  0  0  0
  -12.1123  -27.4464   18.2310 H   0  0  0  0  0  0  0  0  0  0  0  0
  -13.7026  -26.9843   17.6706 H   0  0  0  0  0  0  0  0  0  0  0  0
  -10.9123  -28.3792   15.7358 H   0  0  0  0  0  0  0  0  0  0  0  0
  -10.1372  -27.0986   16.6574 H   0  0  0  0  0  0  0  0  0  0  0  0
   -9.2297  -26.5368   14.6448 H   0  0  0  0  0  0  0  0  0  0  0  0
  -10.4682  -27.3906   13.7322 H   0  0  0  0  0  0  0  0  0  0  0  0
  -12.8656  -28.3775    8.3147 H   0  0  0  0  0  0  0  0  0  0  0  0
  -12.1024  -28.3557    5.9707 H   0  0  0  0  0  0  0  0  0  0  0  0
  -11.6875  -26.1723    4.8463 H   0  0  0  0  0  0  0  0  0  0  0  0
  -12.5570  -24.0632    8.2245 H   0  0  0  0  0  0  0  0  0  0  0  0
  1  2  1  0
  2  3  2  3
  3  4  1  0
  4  5  2  0
  4  6  1  0
  6  7  1  0
  7  8  1  0
  8  9  1  0
  9 10  1  0
 10 11  1  0
 11 12  1  0
 12 13  1  0
 12 14  1  0
 14 15  1  0
  2 16  1  0
 16 17  2  0
 17 18  1  0
 18 19  2  0
 19 20  1  0
 20 21  2  0
 15  9  1  0
 21 16  1  0
  1 22  1  0
  1 23  1  0
  1 24  1  0
  3 25  1  0
  6 26  1  0
  7 27  1  0
  7 28  1  0
  8 29  1  0
  8 30  1  0
  9 31  1  0
 10 32  1  0
 10 33  1  0
 11 34  1  0
 11 35  1  0
 13 36  1  0
 13 37  1  0
 13 38  1  0
 14 39  1  0
 14 40  1  0
 15 41  1  0
 15 42  1  0
 17 43  1  0
 18 44  1  0
 19 45  1  0
 21 46  1  0
M  END
>  <Energy>  (1124) 
61.287760274946564

>  <compound_id>  (1124) 
13950

>  <target_id>  (1124) 
1

>  <reference_id>  (1124) 
48

>  <inspiration_ids>  (1124) 
[9, 48]

>  <energy_score>  (1124) 
-32.481069749580314

>  <distance_score>  (1124) 
1.5474978592102955

>  <path>  (1124) 
/opt/xchem-fragalysis-2/maxwin/BulkDock/SCRATCH/511014/C13950-P48/C13950-P48.minimised.mol

>  <scratch_subdir>  (1124) 
/opt/xchem-fragalysis-2/maxwin/BulkDock/SCRATCH/511014/C13950-P48

>  <fragmenstein_runtime>  (1124) 
2.666620969772339

>  <fragmenstein_outcome>  (1124) 
too moved

>  <fragmenstein_mode>  (1124) 
expansion

>  <fragmenstein_error>  (1124) 


$$$$
C13953-P9
     RDKit          3D

 49 50  0  0  0  0  0  0  0  0999 V2000
  -11.9005  -23.8501   12.6162 C   0  0  0  0  0  0  0  0  0  0  0  0
  -10.4393  -23.7726   12.2111 C   0  0  0  0  0  0  0  0  0  0  0  0
   -9.6558  -22.9748   13.2441 C   0  0  0  0  0  0  0  0  0  0  0  0
   -9.9165  -25.1663   11.7454 C   0  0  0  0  0  0  0  0  0  0  0  0
   -8.4556  -25.3042   11.3170 C   0  0  0  0  0  0  0  0  0  0  0  0
   -8.1169  -26.6872   11.1171 O   0  0  0  0  0  0  0  0  0  0  0  0
  -10.2586  -26.2759   12.5893 N   0  0  0  0  0  0  0  0  0  0  0  0
  -10.4710  -26.3459   14.1100 C   0  0  0  0  0  0  0  0  0  0  0  0
  -10.3276  -25.5332   14.9293 O   0  0  0  0  0  0  0  0  0  0  0  0
  -11.0448  -27.7337   14.3959 C   0  0  0  0  0  0  0  0  0  0  0  0
  -12.2319  -28.1012   13.4914 C   0  0  0  0  0  0  0  0  0  0  0  0
  -13.4163  -27.1543   13.6695 C   0  0  0  0  0  0  0  0  0  0  0  0
  -13.5150  -26.5984   15.0888 C   0  0  0  0  0  0  0  0  0  0  0  0
  -12.9372  -27.5366   16.0480 N   0  0  0  0  0  0  0  0  0  0  0  0
  -13.2693  -27.2004   17.4274 C   0  0  0  0  0  0  0  0  0  0  0  0
  -14.5090  -27.9401   17.8481 C   0  0  0  0  0  0  0  0  0  0  0  0
  -14.4923  -29.3247   18.0425 C   0  0  0  0  0  0  0  0  0  0  0  0
  -15.6561  -29.9857   18.4236 C   0  0  0  0  0  0  0  0  0  0  0  0
  -16.8039  -29.2345   18.6078 C   0  0  0  0  0  0  0  0  0  0  0  0
  -16.8616  -27.8979   18.4312 N   0  0  0  0  0  0  0  0  0  0  0  0
  -15.7199  -27.2863   18.0389 C   0  0  0  0  0  0  0  0  0  0  0  0
  -11.5001  -27.7832   15.8632 C   0  0  0  0  0  0  0  0  0  0  0  0
  -12.3422  -22.8737   12.7537 H   0  0  0  0  0  0  0  0  0  0  0  0
  -12.0502  -24.3736   13.5569 H   0  0  0  0  0  0  0  0  0  0  0  0
  -12.4914  -24.3583   11.8465 H   0  0  0  0  0  0  0  0  0  0  0  0
  -10.4234  -23.1416   11.3237 H   0  0  0  0  0  0  0  0  0  0  0  0
   -8.6441  -22.7599   12.9003 H   0  0  0  0  0  0  0  0  0  0  0  0
  -10.1308  -22.0014   13.3950 H   0  0  0  0  0  0  0  0  0  0  0  0
   -9.6164  -23.4551   14.2189 H   0  0  0  0  0  0  0  0  0  0  0  0
  -10.4946  -25.3991   10.8386 H   0  0  0  0  0  0  0  0  0  0  0  0
   -8.2900  -24.8400   10.3477 H   0  0  0  0  0  0  0  0  0  0  0  0
   -7.7642  -24.8920   12.0497 H   0  0  0  0  0  0  0  0  0  0  0  0
   -7.1756  -26.7052   10.8677 H   0  0  0  0  0  0  0  0  0  0  0  0
  -10.3978  -27.1928   12.1865 H   0  0  0  0  0  0  0  0  0  0  0  0
  -10.2287  -28.4528   14.2511 H   0  0  0  0  0  0  0  0  0  0  0  0
  -12.5578  -29.1151   13.7662 H   0  0  0  0  0  0  0  0  0  0  0  0
  -11.9843  -28.1794   12.4292 H   0  0  0  0  0  0  0  0  0  0  0  0
  -14.3340  -27.7031   13.4228 H   0  0  0  0  0  0  0  0  0  0  0  0
  -13.3545  -26.3279   12.9556 H   0  0  0  0  0  0  0  0  0  0  0  0
  -13.0217  -25.6255   15.1608 H   0  0  0  0  0  0  0  0  0  0  0  0
  -14.5756  -26.4171   15.3021 H   0  0  0  0  0  0  0  0  0  0  0  0
  -13.3784  -26.1186   17.5743 H   0  0  0  0  0  0  0  0  0  0  0  0
  -12.4754  -27.5091   18.1205 H   0  0  0  0  0  0  0  0  0  0  0  0
  -13.5764  -29.8879   17.8826 H   0  0  0  0  0  0  0  0  0  0  0  0
  -15.6671  -31.0595   18.5695 H   0  0  0  0  0  0  0  0  0  0  0  0
  -17.7378  -29.7021   18.9053 H   0  0  0  0  0  0  0  0  0  0  0  0
  -15.8164  -26.2179   17.8678 H   0  0  0  0  0  0  0  0  0  0  0  0
  -10.8959  -27.1262   16.5002 H   0  0  0  0  0  0  0  0  0  0  0  0
  -11.3159  -28.8011   16.2254 H   0  0  0  0  0  0  0  0  0  0  0  0
  1  2  1  0
  2  3  1  0
  2  4  1  0
  4  5  1  0
  5  6  1  0
  4  7  1  0
  7  8  1  0
  8  9  2  0
  8 10  1  0
 10 11  1  0
 11 12  1  0
 12 13  1  0
 13 14  1  0
 14 15  1  0
 15 16  1  0
 16 17  2  0
 17 18  1  0
 18 19  2  0
 19 20  1  0
 20 21  2  0
 14 22  1  0
 22 10  1  0
 21 16  1  0
  1 23  1  0
  1 24  1  0
  1 25  1  0
  2 26  1  0
  3 27  1  0
  3 28  1  0
  3 29  1  0
  4 30  1  0
  5 31  1  0
  5 32  1  0
  6 33  1  0
  7 34  1  0
 10 35  1  0
 11 36  1  0
 11 37  1  0
 12 38  1  0
 12 39  1  0
 13 40  1  0
 13 41  1  0
 15 42  1  0
 15 43  1  0
 17 44  1  0
 18 45  1  0
 19 46  1  0
 21 47  1  0
 22 48  1  0
 22 49  1  0
M  END
>  <Energy>  (1125) 
67.280025505223236

>  <compound_id>  (1125) 
13953

>  <target_id>  (1125) 
1

>  <reference_id>  (1125) 
9

>  <inspiration_ids>  (1125) 
[9, 48]

>  <energy_score>  (1125) 
-21.674229459615333

>  <distance_score>  (1125) 
2.00045223481147

>  <path>  (1125) 
/opt/xchem-fragalysis-2/maxwin/BulkDock/SCRATCH/511014/C13953-P9/C13953-P9.minimised.mol

>  <scratch_subdir>  (1125) 
/opt/xchem-fragalysis-2/maxwin/BulkDock/SCRATCH/511014/C13953-P9

>  <fragmenstein_runtime>  (1125) 
19.09443974494934

>  <fragmenstein_outcome>  (1125) 
too moved

>  <fragmenstein_mode>  (1125) 
expansion

>  <fragmenstein_error>  (1125) 


$$$$
C13953-P48
     RDKit          3D

 49 50  0  0  0  0  0  0  0  0999 V2000
  -10.6447  -22.3854   12.6957 C   0  0  0  0  0  0  0  0  0  0  0  0
   -9.8761  -23.6624   12.9462 C   0  0  0  0  0  0  0  0  0  0  0  0
  -10.0301  -24.0437   14.3981 C   0  0  0  0  0  0  0  0  0  0  0  0
  -10.2674  -24.7742   11.9517 C   0  0  0  0  0  0  0  0  0  0  0  0
   -9.0923  -25.6846   11.5704 C   0  0  0  0  0  0  0  0  0  0  0  0
   -8.7479  -26.5572   12.6448 O   0  0  0  0  0  0  0  0  0  0  0  0
  -11.3908  -25.5719   12.3659 N   0  0  0  0  0  0  0  0  0  0  0  0
  -12.1345  -26.7046   11.6378 C   0  0  0  0  0  0  0  0  0  0  0  0
  -12.0054  -27.1202   10.5576 O   0  0  0  0  0  0  0  0  0  0  0  0
  -13.2356  -27.1905   12.5714 C   0  0  0  0  0  0  0  0  0  0  0  0
  -14.3665  -26.1615   12.5840 C   0  0  0  0  0  0  0  0  0  0  0  0
  -14.2909  -25.1710   13.7310 C   0  0  0  0  0  0  0  0  0  0  0  0
  -14.0621  -25.9001   15.0454 C   0  0  0  0  0  0  0  0  0  0  0  0
  -12.7797  -26.6038   15.0145 N   0  0  0  0  0  0  0  0  0  0  0  0
  -12.4053  -27.1311   16.3466 C   0  0  0  0  0  0  0  0  0  0  0  0
  -13.3214  -28.1683   16.9549 C   0  0  0  0  0  0  0  0  0  0  0  0
  -14.4059  -27.8183   17.7636 C   0  0  0  0  0  0  0  0  0  0  0  0
  -15.2589  -28.8045   18.2511 C   0  0  0  0  0  0  0  0  0  0  0  0
  -14.9806  -30.1244   17.9401 C   0  0  0  0  0  0  0  0  0  0  0  0
  -13.9259  -30.5103   17.1937 N   0  0  0  0  0  0  0  0  0  0  0  0
  -13.1317  -29.5255   16.7143 C   0  0  0  0  0  0  0  0  0  0  0  0
  -12.7510  -27.6404   13.9643 C   0  0  0  0  0  0  0  0  0  0  0  0
  -10.3752  -22.0154   11.7069 H   0  0  0  0  0  0  0  0  0  0  0  0
  -10.3939  -21.6089   13.4214 H   0  0  0  0  0  0  0  0  0  0  0  0
  -11.7195  -22.5730   12.7436 H   0  0  0  0  0  0  0  0  0  0  0  0
   -8.8339  -23.3989   12.7611 H   0  0  0  0  0  0  0  0  0  0  0  0
   -9.5891  -25.0182   14.6151 H   0  0  0  0  0  0  0  0  0  0  0  0
   -9.5759  -23.2912   15.0487 H   0  0  0  0  0  0  0  0  0  0  0  0
  -11.0810  -24.1319   14.6603 H   0  0  0  0  0  0  0  0  0  0  0  0
  -10.6072  -24.3065   11.0299 H   0  0  0  0  0  0  0  0  0  0  0  0
   -9.3608  -26.3102   10.7121 H   0  0  0  0  0  0  0  0  0  0  0  0
   -8.2024  -25.1118   11.2986 H   0  0  0  0  0  0  0  0  0  0  0  0
   -8.0882  -27.1809   12.2949 H   0  0  0  0  0  0  0  0  0  0  0  0
  -11.7015  -25.5285   13.3316 H   0  0  0  0  0  0  0  0  0  0  0  0
  -13.6244  -28.0928   12.0748 H   0  0  0  0  0  0  0  0  0  0  0  0
  -15.3151  -26.7079   12.6781 H   0  0  0  0  0  0  0  0  0  0  0  0
  -14.4268  -25.6179   11.6331 H   0  0  0  0  0  0  0  0  0  0  0  0
  -15.2341  -24.6139   13.7859 H   0  0  0  0  0  0  0  0  0  0  0  0
  -13.5109  -24.4220   13.5589 H   0  0  0  0  0  0  0  0  0  0  0  0
  -14.0745  -25.1614   15.8541 H   0  0  0  0  0  0  0  0  0  0  0  0
  -14.8974  -26.5880   15.2266 H   0  0  0  0  0  0  0  0  0  0  0  0
  -12.3130  -26.2919   17.0461 H   0  0  0  0  0  0  0  0  0  0  0  0
  -11.3884  -27.5428   16.2896 H   0  0  0  0  0  0  0  0  0  0  0  0
  -14.6054  -26.7744   17.9932 H   0  0  0  0  0  0  0  0  0  0  0  0
  -16.1216  -28.5486   18.8556 H   0  0  0  0  0  0  0  0  0  0  0  0
  -15.6171  -30.9303   18.2941 H   0  0  0  0  0  0  0  0  0  0  0  0
  -12.3126  -29.8721   16.0903 H   0  0  0  0  0  0  0  0  0  0  0  0
  -11.7367  -28.0513   13.8862 H   0  0  0  0  0  0  0  0  0  0  0  0
  -13.4098  -28.4680   14.2518 H   0  0  0  0  0  0  0  0  0  0  0  0
  1  2  1  0
  2  3  1  0
  2  4  1  0
  4  5  1  0
  5  6  1  0
  4  7  1  0
  7  8  1  0
  8  9  2  0
  8 10  1  0
 10 11  1  0
 11 12  1  0
 12 13  1  0
 13 14  1  0
 14 15  1  0
 15 16  1  0
 16 17  2  0
 17 18  1  0
 18 19  2  0
 19 20  1  0
 20 21  2  0
 14 22  1  0
 22 10  1  0
 21 16  1  0
  1 23  1  0
  1 24  1  0
  1 25  1  0
  2 26  1  0
  3 27  1  0
  3 28  1  0
  3 29  1  0
  4 30  1  0
  5 31  1  0
  5 32  1  0
  6 33  1  0
  7 34  1  0
 10 35  1  0
 11 36  1  0
 11 37  1  0
 12 38  1  0
 12 39  1  0
 13 40  1  0
 13 41  1  0
 15 42  1  0
 15 43  1  0
 17 44  1  0
 18 45  1  0
 19 46  1  0
 21 47  1  0
 22 48  1  0
 22 49  1  0
M  END
>  <Energy>  (1126) 
51.969569438037965

>  <compound_id>  (1126) 
13953

>  <target_id>  (1126) 
1

>  <reference_id>  (1126) 
48

>  <inspiration_ids>  (1126) 
[9, 48]

>  <energy_score>  (1126) 
-36.98468552680163

>  <distance_score>  (1126) 
2.186877979444006

>  <path>  (1126) 
/opt/xchem-fragalysis-2/maxwin/BulkDock/SCRATCH/511014/C13953-P48/C13953-P48.minimised.mol

>  <scratch_subdir>  (1126) 
/opt/xchem-fragalysis-2/maxwin/BulkDock/SCRATCH/511014/C13953-P48

>  <fragmenstein_runtime>  (1126) 
18.43120002746582

>  <fragmenstein_outcome>  (1126) 
too moved

>  <fragmenstein_mode>  (1126) 
expansion

>  <fragmenstein_error>  (1126) 


$$$$
C13954-P9
     RDKit          3D

 51 52  0  0  0  0  0  0  0  0999 V2000
   -8.0783  -22.1681   12.9146 C   0  0  0  0  0  0  0  0  0  0  0  0
   -9.4527  -22.6214   13.3974 C   0  0  0  0  0  0  0  0  0  0  0  0
  -10.0629  -23.5019   12.3466 C   0  0  0  0  0  0  0  0  0  0  0  0
  -11.2178  -24.3652   12.7952 C   0  0  0  0  0  0  0  0  0  0  0  0
  -10.9308  -25.1304   13.9568 O   0  0  0  0  0  0  0  0  0  0  0  0
   -9.8505  -26.0611   13.9042 C   0  0  0  0  0  0  0  0  0  0  0  0
  -10.2404  -27.4651   13.4835 C   0  0  0  0  0  0  0  0  0  0  0  0
  -11.7519  -25.1119   11.5457 C   0  0  0  0  0  0  0  0  0  0  0  0
  -11.5050  -24.8235   10.4460 O   0  0  0  0  0  0  0  0  0  0  0  0
  -12.7035  -26.1790   12.1052 N   0  0  0  0  0  0  0  0  0  0  0  0
  -13.6234  -27.0529   11.4335 C   0  0  0  0  0  0  0  0  0  0  0  0
  -14.9250  -26.2965   11.3533 C   0  0  0  0  0  0  0  0  0  0  0  0
  -15.5208  -26.3242   12.7446 C   0  0  0  0  0  0  0  0  0  0  0  0
  -15.3754  -27.7381   13.3300 C   0  0  0  0  0  0  0  0  0  0  0  0
  -13.9595  -28.1453   13.7407 N   0  0  0  0  0  0  0  0  0  0  0  0
  -13.9850  -29.1458   14.8604 C   0  0  0  0  0  0  0  0  0  0  0  0
  -14.0136  -30.3181   14.8306 O   0  0  0  0  0  0  0  0  0  0  0  0
  -13.9647  -28.4351   16.1613 C   0  0  0  0  0  0  0  0  0  0  0  0
  -14.7014  -28.9264   17.2360 C   0  0  0  0  0  0  0  0  0  0  0  0
  -14.7601  -28.1795   18.4042 C   0  0  0  0  0  0  0  0  0  0  0  0
  -14.0344  -26.9994   18.4685 C   0  0  0  0  0  0  0  0  0  0  0  0
  -13.2828  -26.5171   17.4589 N   0  0  0  0  0  0  0  0  0  0  0  0
  -13.2715  -27.2421   16.3202 C   0  0  0  0  0  0  0  0  0  0  0  0
  -13.8596  -28.3436   12.2403 C   0  0  0  0  0  0  0  0  0  0  0  0
   -8.1598  -21.3446   12.2002 H   0  0  0  0  0  0  0  0  0  0  0  0
   -7.4659  -22.9578   12.4725 H   0  0  0  0  0  0  0  0  0  0  0  0
   -7.4972  -21.8151   13.7517 H   0  0  0  0  0  0  0  0  0  0  0  0
   -9.3767  -23.1296   14.3621 H   0  0  0  0  0  0  0  0  0  0  0  0
  -10.1026  -21.7600   13.5616 H   0  0  0  0  0  0  0  0  0  0  0  0
  -10.3725  -22.8762   11.5095 H   0  0  0  0  0  0  0  0  0  0  0  0
   -9.3047  -24.1883   11.9552 H   0  0  0  0  0  0  0  0  0  0  0  0
  -12.0409  -23.7000   13.0832 H   0  0  0  0  0  0  0  0  0  0  0  0
   -9.4688  -26.1264   14.9275 H   0  0  0  0  0  0  0  0  0  0  0  0
   -9.0392  -25.7123   13.2683 H   0  0  0  0  0  0  0  0  0  0  0  0
  -10.4841  -27.5087   12.4195 H   0  0  0  0  0  0  0  0  0  0  0  0
   -9.4079  -28.1550   13.6544 H   0  0  0  0  0  0  0  0  0  0  0  0
  -11.1046  -27.8227   14.0464 H   0  0  0  0  0  0  0  0  0  0  0  0
  -12.6133  -26.2166   13.1204 H   0  0  0  0  0  0  0  0  0  0  0  0
  -13.2388  -27.2636   10.4307 H   0  0  0  0  0  0  0  0  0  0  0  0
  -14.8061  -25.2675   10.9954 H   0  0  0  0  0  0  0  0  0  0  0  0
  -15.6041  -26.8067   10.6588 H   0  0  0  0  0  0  0  0  0  0  0  0
  -16.5791  -26.0435   12.6997 H   0  0  0  0  0  0  0  0  0  0  0  0
  -15.0239  -25.5962   13.3978 H   0  0  0  0  0  0  0  0  0  0  0  0
  -15.8991  -27.6607   14.2969 H   0  0  0  0  0  0  0  0  0  0  0  0
  -15.9886  -28.5185   12.8452 H   0  0  0  0  0  0  0  0  0  0  0  0
  -15.2565  -29.8559   17.1438 H   0  0  0  0  0  0  0  0  0  0  0  0
  -15.3670  -28.5074   19.2386 H   0  0  0  0  0  0  0  0  0  0  0  0
  -14.0351  -26.3874   19.3629 H   0  0  0  0  0  0  0  0  0  0  0  0
  -12.6746  -26.8119   15.5233 H   0  0  0  0  0  0  0  0  0  0  0  0
  -12.9021  -28.8869   12.1776 H   0  0  0  0  0  0  0  0  0  0  0  0
  -14.5323  -29.0882   11.7807 H   0  0  0  0  0  0  0  0  0  0  0  0
  1  2  1  0
  2  3  1  0
  3  4  1  0
  4  5  1  0
  5  6  1  0
  6  7  1  0
  4  8  1  0
  8  9  2  0
  8 10  1  0
 10 11  1  0
 11 12  1  0
 12 13  1  0
 13 14  1  0
 14 15  1  0
 15 16  1  0
 16 17  2  0
 16 18  1  0
 18 19  2  0
 19 20  1  0
 20 21  2  0
 21 22  1  0
 22 23  2  0
 15 24  1  0
 24 11  1  0
 23 18  1  0
  1 25  1  0
  1 26  1  0
  1 27  1  0
  2 28  1  0
  2 29  1  0
  3 30  1  0
  3 31  1  0
  4 32  1  0
  6 33  1  0
  6 34  1  0
  7 35  1  0
  7 36  1  0
  7 37  1  0
 10 38  1  0
 11 39  1  0
 12 40  1  0
 12 41  1  0
 13 42  1  0
 13 43  1  0
 14 44  1  0
 14 45  1  0
 19 46  1  0
 20 47  1  0
 21 48  1  0
 23 49  1  0
 24 50  1  0
 24 51  1  0
M  END
>  <Energy>  (1127) 
156.53748581052912

>  <compound_id>  (1127) 
13954

>  <target_id>  (1127) 
1

>  <reference_id>  (1127) 
9

>  <inspiration_ids>  (1127) 
[9, 48]

>  <energy_score>  (1127) 
52.055617445724124

>  <distance_score>  (1127) 
3.3024089713542555

>  <path>  (1127) 
/opt/xchem-fragalysis-2/maxwin/BulkDock/SCRATCH/511014/C13954-P9/C13954-P9.minimised.mol

>  <scratch_subdir>  (1127) 
/opt/xchem-fragalysis-2/maxwin/BulkDock/SCRATCH/511014/C13954-P9

>  <fragmenstein_runtime>  (1127) 
12.86024522781372

>  <fragmenstein_outcome>  (1127) 
too moved

>  <fragmenstein_mode>  (1127) 
expansion

>  <fragmenstein_error>  (1127) 


$$$$
C13954-P48
     RDKit          3D

 51 52  0  0  0  0  0  0  0  0999 V2000
   -9.4965  -21.2470   12.0545 C   0  0  0  0  0  0  0  0  0  0  0  0
   -9.3896  -22.3990   12.9939 C   0  0  0  0  0  0  0  0  0  0  0  0
  -10.6552  -23.2208   12.9302 C   0  0  0  0  0  0  0  0  0  0  0  0
  -10.3692  -24.4672   13.7262 C   0  0  0  0  0  0  0  0  0  0  0  0
   -9.3307  -25.2391   13.1271 O   0  0  0  0  0  0  0  0  0  0  0  0
   -9.6219  -25.8022   11.8474 C   0  0  0  0  0  0  0  0  0  0  0  0
   -8.5395  -26.8138   11.5242 C   0  0  0  0  0  0  0  0  0  0  0  0
  -11.5818  -25.3113   14.0825 C   0  0  0  0  0  0  0  0  0  0  0  0
  -12.6996  -25.0220   13.9239 O   0  0  0  0  0  0  0  0  0  0  0  0
  -10.9526  -26.5709   14.7321 N   0  0  0  0  0  0  0  0  0  0  0  0
  -11.5657  -27.7639   15.2287 C   0  0  0  0  0  0  0  0  0  0  0  0
  -12.3185  -28.4032   14.0841 C   0  0  0  0  0  0  0  0  0  0  0  0
  -13.7885  -28.0792   14.1824 C   0  0  0  0  0  0  0  0  0  0  0  0
  -14.2229  -27.6946   15.6101 C   0  0  0  0  0  0  0  0  0  0  0  0
  -13.5541  -28.3438   16.8289 N   0  0  0  0  0  0  0  0  0  0  0  0
  -13.6210  -29.8470   16.7526 C   0  0  0  0  0  0  0  0  0  0  0  0
  -12.8707  -30.6189   16.2803 O   0  0  0  0  0  0  0  0  0  0  0  0
  -14.8087  -30.3560   17.5001 C   0  0  0  0  0  0  0  0  0  0  0  0
  -15.6104  -29.5402   18.3035 C   0  0  0  0  0  0  0  0  0  0  0  0
  -16.7008  -30.0954   18.9723 C   0  0  0  0  0  0  0  0  0  0  0  0
  -16.9448  -31.4517   18.8253 C   0  0  0  0  0  0  0  0  0  0  0  0
  -16.1816  -32.2723   18.0727 N   0  0  0  0  0  0  0  0  0  0  0  0
  -15.1311  -31.7057   17.4252 C   0  0  0  0  0  0  0  0  0  0  0  0
  -12.4758  -27.3971   16.4215 C   0  0  0  0  0  0  0  0  0  0  0  0
   -9.8930  -21.6132   11.1150 H   0  0  0  0  0  0  0  0  0  0  0  0
   -8.5332  -20.7718   11.8456 H   0  0  0  0  0  0  0  0  0  0  0  0
  -10.1636  -20.5069   12.4912 H   0  0  0  0  0  0  0  0  0  0  0  0
   -9.2193  -22.0900   14.0289 H   0  0  0  0  0  0  0  0  0  0  0  0
   -8.5204  -22.9826   12.7026 H   0  0  0  0  0  0  0  0  0  0  0  0
  -11.5009  -22.6661   13.3325 H   0  0  0  0  0  0  0  0  0  0  0  0
  -10.9185  -23.4677   11.8966 H   0  0  0  0  0  0  0  0  0  0  0  0
   -9.9785  -24.1529   14.7037 H   0  0  0  0  0  0  0  0  0  0  0  0
   -9.6148  -25.0188   11.0870 H   0  0  0  0  0  0  0  0  0  0  0  0
  -10.5986  -26.2954   11.8454 H   0  0  0  0  0  0  0  0  0  0  0  0
   -8.7151  -27.2747   10.5482 H   0  0  0  0  0  0  0  0  0  0  0  0
   -7.5546  -26.3351   11.5164 H   0  0  0  0  0  0  0  0  0  0  0  0
   -8.5071  -27.5994   12.2864 H   0  0  0  0  0  0  0  0  0  0  0  0
   -9.9358  -26.5365   14.6298 H   0  0  0  0  0  0  0  0  0  0  0  0
  -10.7541  -28.4253   15.5529 H   0  0  0  0  0  0  0  0  0  0  0  0
  -11.9234  -28.1372   13.0962 H   0  0  0  0  0  0  0  0  0  0  0  0
  -12.2005  -29.4912   14.1516 H   0  0  0  0  0  0  0  0  0  0  0  0
  -14.3649  -28.9487   13.8415 H   0  0  0  0  0  0  0  0  0  0  0  0
  -14.0540  -27.2642   13.4996 H   0  0  0  0  0  0  0  0  0  0  0  0
  -14.4235  -26.6139   15.7250 H   0  0  0  0  0  0  0  0  0  0  0  0
  -15.2532  -28.0814   15.6758 H   0  0  0  0  0  0  0  0  0  0  0  0
  -15.4044  -28.4802   18.4192 H   0  0  0  0  0  0  0  0  0  0  0  0
  -17.3462  -29.4827   19.5920 H   0  0  0  0  0  0  0  0  0  0  0  0
  -17.7844  -31.9285   19.3236 H   0  0  0  0  0  0  0  0  0  0  0  0
  -14.5413  -32.3952   16.8260 H   0  0  0  0  0  0  0  0  0  0  0  0
  -12.7304  -26.3263   16.5229 H   0  0  0  0  0  0  0  0  0  0  0  0
  -11.7924  -27.4898   17.2826 H   0  0  0  0  0  0  0  0  0  0  0  0
  1  2  1  0
  2  3  1  0
  3  4  1  0
  4  5  1  0
  5  6  1  0
  6  7  1  0
  4  8  1  0
  8  9  2  0
  8 10  1  0
 10 11  1  0
 11 12  1  0
 12 13  1  0
 13 14  1  0
 14 15  1  0
 15 16  1  0
 16 17  2  0
 16 18  1  0
 18 19  2  0
 19 20  1  0
 20 21  2  0
 21 22  1  0
 22 23  2  0
 15 24  1  0
 24 11  1  0
 23 18  1  0
  1 25  1  0
  1 26  1  0
  1 27  1  0
  2 28  1  0
  2 29  1  0
  3 30  1  0
  3 31  1  0
  4 32  1  0
  6 33  1  0
  6 34  1  0
  7 35  1  0
  7 36  1  0
  7 37  1  0
 10 38  1  0
 11 39  1  0
 12 40  1  0
 12 41  1  0
 13 42  1  0
 13 43  1  0
 14 44  1  0
 14 45  1  0
 19 46  1  0
 20 47  1  0
 21 48  1  0
 23 49  1  0
 24 50  1  0
 24 51  1  0
M  END
>  <Energy>  (1128) 
159.00166552697877

>  <compound_id>  (1128) 
13954

>  <target_id>  (1128) 
1

>  <reference_id>  (1128) 
48

>  <inspiration_ids>  (1128) 
[9, 48]

>  <energy_score>  (1128) 
54.51979716217511

>  <distance_score>  (1128) 
3.0664857642766603

>  <path>  (1128) 
/opt/xchem-fragalysis-2/maxwin/BulkDock/SCRATCH/511014/C13954-P48/C13954-P48.minimised.mol

>  <scratch_subdir>  (1128) 
/opt/xchem-fragalysis-2/maxwin/BulkDock/SCRATCH/511014/C13954-P48

>  <fragmenstein_runtime>  (1128) 
14.468362808227539

>  <fragmenstein_outcome>  (1128) 
too moved

>  <fragmenstein_mode>  (1128) 
expansion

>  <fragmenstein_error>  (1128) 


$$$$
C13956-P9
     RDKit          3D

 38 39  0  0  0  0  0  0  0  0999 V2000
  -15.9557  -29.7191   17.4689 C   0  0  0  0  0  0  0  0  0  0  0  0
  -14.7830  -28.9783   17.1584 O   0  0  0  0  0  0  0  0  0  0  0  0
  -14.9658  -27.6565   17.5871 N   0  0  0  0  0  0  0  0  0  0  0  0
  -13.8898  -26.9478   17.4222 C   0  0  0  0  0  0  0  0  0  0  0  0
  -12.5761  -27.4913   16.9163 C   0  0  0  0  0  0  0  0  0  0  0  0
  -12.0902  -28.3914   17.4845 O   0  0  0  0  0  0  0  0  0  0  0  0
  -12.0874  -26.7142   15.7258 N   0  0  0  0  0  0  0  0  0  0  0  0
  -12.5805  -27.3343   14.4217 C   0  0  0  0  0  0  0  0  0  0  0  0
  -12.7250  -26.3839   13.2142 C   0  0  0  0  0  0  0  0  0  0  0  0
  -11.3418  -26.0468   12.6842 C   0  0  0  0  0  0  0  0  0  0  0  0
  -11.3186  -24.9018   11.6702 C   0  0  0  0  0  0  0  0  0  0  0  0
  -11.8889  -25.2607   10.3191 C   0  0  0  0  0  0  0  0  0  0  0  0
  -11.2476  -26.1549    9.4551 C   0  0  0  0  0  0  0  0  0  0  0  0
  -11.7517  -26.3676    8.1728 C   0  0  0  0  0  0  0  0  0  0  0  0
  -12.8882  -25.6766    7.7914 C   0  0  0  0  0  0  0  0  0  0  0  0
  -13.5540  -24.8285    8.6031 N   0  0  0  0  0  0  0  0  0  0  0  0
  -13.0457  -24.6509    9.8435 C   0  0  0  0  0  0  0  0  0  0  0  0
  -10.5082  -25.7261   13.9094 C   0  0  0  0  0  0  0  0  0  0  0  0
  -10.7837  -26.7913   14.9704 C   0  0  0  0  0  0  0  0  0  0  0  0
  -16.1235  -29.7264   18.5502 H   0  0  0  0  0  0  0  0  0  0  0  0
  -15.8153  -30.7478   17.1272 H   0  0  0  0  0  0  0  0  0  0  0  0
  -16.8221  -29.2918   16.9548 H   0  0  0  0  0  0  0  0  0  0  0  0
  -13.8775  -25.8782   17.6794 H   0  0  0  0  0  0  0  0  0  0  0  0
  -13.6259  -27.5905   14.6609 H   0  0  0  0  0  0  0  0  0  0  0  0
  -12.1838  -28.3379   14.1846 H   0  0  0  0  0  0  0  0  0  0  0  0
  -13.3246  -26.8664   12.4342 H   0  0  0  0  0  0  0  0  0  0  0  0
  -13.2577  -25.4763   13.5253 H   0  0  0  0  0  0  0  0  0  0  0  0
  -10.9228  -26.9508   12.2206 H   0  0  0  0  0  0  0  0  0  0  0  0
  -10.2833  -24.5715   11.5148 H   0  0  0  0  0  0  0  0  0  0  0  0
  -11.8471  -24.0329   12.0824 H   0  0  0  0  0  0  0  0  0  0  0  0
  -10.3313  -26.6571    9.7558 H   0  0  0  0  0  0  0  0  0  0  0  0
  -11.2523  -27.0355    7.4801 H   0  0  0  0  0  0  0  0  0  0  0  0
  -13.3074  -25.7936    6.7965 H   0  0  0  0  0  0  0  0  0  0  0  0
  -13.6155  -23.9639   10.4627 H   0  0  0  0  0  0  0  0  0  0  0  0
  -10.7426  -24.7305   14.3009 H   0  0  0  0  0  0  0  0  0  0  0  0
   -9.4470  -25.7318   13.6420 H   0  0  0  0  0  0  0  0  0  0  0  0
  -10.0734  -26.5500   15.7773 H   0  0  0  0  0  0  0  0  0  0  0  0
  -10.4285  -27.8071   14.7199 H   0  0  0  0  0  0  0  0  0  0  0  0
  1  2  1  0
  2  3  1  0
  3  4  2  3
  4  5  1  0
  5  6  2  0
  5  7  1  0
  7  8  1  0
  8  9  1  0
  9 10  1  0
 10 11  1  0
 11 12  1  0
 12 13  2  0
 13 14  1  0
 14 15  2  0
 15 16  1  0
 16 17  2  0
 10 18  1  0
 18 19  1  0
 19  7  1  0
 17 12  1  0
  1 20  1  0
  1 21  1  0
  1 22  1  0
  4 23  1  0
  8 24  1  0
  8 25  1  0
  9 26  1  0
  9 27  1  0
 10 28  1  0
 11 29  1  0
 11 30  1  0
 13 31  1  0
 14 32  1  0
 15 33  1  0
 17 34  1  0
 18 35  1  0
 18 36  1  0
 19 37  1  0
 19 38  1  0
M  END
>  <Energy>  (1129) 
145.11966200905749

>  <compound_id>  (1129) 
13956

>  <target_id>  (1129) 
1

>  <reference_id>  (1129) 
9

>  <inspiration_ids>  (1129) 
[9, 48]

>  <energy_score>  (1129) 
44.22106352855647

>  <distance_score>  (1129) 
1.0836496871786185

>  <path>  (1129) 
/opt/xchem-fragalysis-2/maxwin/BulkDock/SCRATCH/511014/C13956-P9/C13956-P9.minimised.mol

>  <scratch_subdir>  (1129) 
/opt/xchem-fragalysis-2/maxwin/BulkDock/SCRATCH/511014/C13956-P9

>  <fragmenstein_runtime>  (1129) 
5.541884899139404

>  <fragmenstein_outcome>  (1129) 
too moved

>  <fragmenstein_mode>  (1129) 
expansion

>  <fragmenstein_error>  (1129) 


$$$$
C13956-P48
     RDKit          3D

 38 39  0  0  0  0  0  0  0  0999 V2000
  -16.0032  -29.7437   17.4603 C   0  0  0  0  0  0  0  0  0  0  0  0
  -14.8272  -28.9943   17.1838 O   0  0  0  0  0  0  0  0  0  0  0  0
  -15.0314  -27.6749   17.6100 N   0  0  0  0  0  0  0  0  0  0  0  0
  -13.9654  -26.9500   17.4512 C   0  0  0  0  0  0  0  0  0  0  0  0
  -12.6415  -27.4731   16.9527 C   0  0  0  0  0  0  0  0  0  0  0  0
  -12.1455  -28.3671   17.5229 O   0  0  0  0  0  0  0  0  0  0  0  0
  -12.1519  -26.6798   15.7715 N   0  0  0  0  0  0  0  0  0  0  0  0
  -12.6161  -27.3030   14.4568 C   0  0  0  0  0  0  0  0  0  0  0  0
  -12.7515  -26.3575   13.2421 C   0  0  0  0  0  0  0  0  0  0  0  0
  -11.3639  -25.9935   12.7400 C   0  0  0  0  0  0  0  0  0  0  0  0
  -11.3373  -24.8602   11.7112 C   0  0  0  0  0  0  0  0  0  0  0  0
  -11.8783  -25.2460   10.3551 C   0  0  0  0  0  0  0  0  0  0  0  0
  -11.1951  -26.1169    9.4997 C   0  0  0  0  0  0  0  0  0  0  0  0
  -11.6804  -26.3547    8.2142 C   0  0  0  0  0  0  0  0  0  0  0  0
  -12.8413  -25.7127    7.8213 C   0  0  0  0  0  0  0  0  0  0  0  0
  -13.5485  -24.8920    8.6257 N   0  0  0  0  0  0  0  0  0  0  0  0
  -13.0579  -24.6910    9.8700 C   0  0  0  0  0  0  0  0  0  0  0  0
  -10.5721  -25.6451   13.9858 C   0  0  0  0  0  0  0  0  0  0  0  0
  -10.8370  -26.7279   15.0328 C   0  0  0  0  0  0  0  0  0  0  0  0
  -16.2045  -29.7491   18.5360 H   0  0  0  0  0  0  0  0  0  0  0  0
  -15.8442  -30.7725   17.1266 H   0  0  0  0  0  0  0  0  0  0  0  0
  -16.8564  -29.3247   16.9181 H   0  0  0  0  0  0  0  0  0  0  0  0
  -13.9705  -25.8804   17.7092 H   0  0  0  0  0  0  0  0  0  0  0  0
  -12.2022  -28.3015   14.2283 H   0  0  0  0  0  0  0  0  0  0  0  0
  -13.6621  -27.5718   14.6788 H   0  0  0  0  0  0  0  0  0  0  0  0
  -13.3249  -26.8542   12.4513 H   0  0  0  0  0  0  0  0  0  0  0  0
  -13.3083  -25.4596   13.5387 H   0  0  0  0  0  0  0  0  0  0  0  0
  -10.9137  -26.8924   12.2957 H   0  0  0  0  0  0  0  0  0  0  0  0
  -10.3037  -24.5178   11.5699 H   0  0  0  0  0  0  0  0  0  0  0  0
  -11.8844  -23.9912   12.0993 H   0  0  0  0  0  0  0  0  0  0  0  0
  -10.2616  -26.5803    9.8097 H   0  0  0  0  0  0  0  0  0  0  0  0
  -11.1480  -27.0036    7.5279 H   0  0  0  0  0  0  0  0  0  0  0  0
  -13.2473  -25.8499    6.8235 H   0  0  0  0  0  0  0  0  0  0  0  0
  -13.6632  -24.0316   10.4856 H   0  0  0  0  0  0  0  0  0  0  0  0
  -10.8562  -24.6615   14.3779 H   0  0  0  0  0  0  0  0  0  0  0  0
   -9.5054  -25.6103   13.7454 H   0  0  0  0  0  0  0  0  0  0  0  0
  -10.1410  -26.4837   15.8504 H   0  0  0  0  0  0  0  0  0  0  0  0
  -10.4604  -27.7343   14.7756 H   0  0  0  0  0  0  0  0  0  0  0  0
  1  2  1  0
  2  3  1  0
  3  4  2  3
  4  5  1  0
  5  6  2  0
  5  7  1  0
  7  8  1  0
  8  9  1  0
  9 10  1  0
 10 11  1  0
 11 12  1  0
 12 13  2  0
 13 14  1  0
 14 15  2  0
 15 16  1  0
 16 17  2  0
 10 18  1  0
 18 19  1  0
 19  7  1  0
 17 12  1  0
  1 20  1  0
  1 21  1  0
  1 22  1  0
  4 23  1  0
  8 24  1  0
  8 25  1  0
  9 26  1  0
  9 27  1  0
 10 28  1  0
 11 29  1  0
 11 30  1  0
 13 31  1  0
 14 32  1  0
 15 33  1  0
 17 34  1  0
 18 35  1  0
 18 36  1  0
 19 37  1  0
 19 38  1  0
M  END
>  <Energy>  (1130) 
145.2388280640416

>  <compound_id>  (1130) 
13956

>  <target_id>  (1130) 
1

>  <reference_id>  (1130) 
48

>  <inspiration_ids>  (1130) 
[9, 48]

>  <energy_score>  (1130) 
44.34022958354106

>  <distance_score>  (1130) 
1.093082577134938

>  <path>  (1130) 
/opt/xchem-fragalysis-2/maxwin/BulkDock/SCRATCH/511014/C13956-P48/C13956-P48.minimised.mol

>  <scratch_subdir>  (1130) 
/opt/xchem-fragalysis-2/maxwin/BulkDock/SCRATCH/511014/C13956-P48

>  <fragmenstein_runtime>  (1130) 
5.452240705490112

>  <fragmenstein_outcome>  (1130) 
too moved

>  <fragmenstein_mode>  (1130) 
expansion

>  <fragmenstein_error>  (1130) 


$$$$
C13957-P9
     RDKit          3D

 42 43  0  0  0  0  0  0  0  0999 V2000
  -13.1362  -31.8590   18.8665 C   0  0  0  0  0  0  0  0  0  0  0  0
  -13.0327  -30.8964   17.8258 O   0  0  0  0  0  0  0  0  0  0  0  0
  -13.7123  -29.7337   18.2155 N   0  0  0  0  0  0  0  0  0  0  0  0
  -13.5154  -28.7763   17.3606 C   0  0  0  0  0  0  0  0  0  0  0  0
  -12.6559  -28.8557   16.1098 C   0  0  0  0  0  0  0  0  0  0  0  0
  -12.9713  -29.6224   15.2437 O   0  0  0  0  0  0  0  0  0  0  0  0
  -11.5704  -27.9308   16.1818 N   0  0  0  0  0  0  0  0  0  0  0  0
  -11.9979  -26.5775   15.6352 C   0  0  0  0  0  0  0  0  0  0  0  0
  -12.6100  -26.5112   14.2304 C   0  0  0  0  0  0  0  0  0  0  0  0
  -11.5341  -26.7719   13.1892 C   0  0  0  0  0  0  0  0  0  0  0  0
  -12.1328  -27.1722   11.8276 C   0  0  0  0  0  0  0  0  0  0  0  0
  -13.2738  -27.5242   11.7631 O   0  0  0  0  0  0  0  0  0  0  0  0
  -11.1320  -27.0445   10.8056 N   0  0  0  0  0  0  0  0  0  0  0  0
  -11.1608  -27.3890    9.4053 C   0  0  0  0  0  0  0  0  0  0  0  0
  -12.1569  -26.5821    8.6280 C   0  0  0  0  0  0  0  0  0  0  0  0
  -13.5183  -26.8988    8.6531 C   0  0  0  0  0  0  0  0  0  0  0  0
  -14.4254  -26.1404    7.9209 C   0  0  0  0  0  0  0  0  0  0  0  0
  -13.9428  -25.0763    7.1827 C   0  0  0  0  0  0  0  0  0  0  0  0
  -12.6405  -24.7336    7.1323 N   0  0  0  0  0  0  0  0  0  0  0  0
  -11.7789  -25.4954    7.8483 C   0  0  0  0  0  0  0  0  0  0  0  0
  -10.6359  -27.8710   13.7333 C   0  0  0  0  0  0  0  0  0  0  0  0
  -10.4088  -27.7001   15.2449 C   0  0  0  0  0  0  0  0  0  0  0  0
  -12.6189  -32.7682   18.5494 H   0  0  0  0  0  0  0  0  0  0  0  0
  -14.1863  -32.0988   19.0591 H   0  0  0  0  0  0  0  0  0  0  0  0
  -12.6619  -31.4832   19.7781 H   0  0  0  0  0  0  0  0  0  0  0  0
  -13.9983  -27.8020   17.5237 H   0  0  0  0  0  0  0  0  0  0  0  0
  -11.2858  -25.7630   15.8349 H   0  0  0  0  0  0  0  0  0  0  0  0
  -12.8277  -26.2927   16.3003 H   0  0  0  0  0  0  0  0  0  0  0  0
  -13.0454  -25.5181   14.0634 H   0  0  0  0  0  0  0  0  0  0  0  0
  -13.4406  -27.2212   14.1523 H   0  0  0  0  0  0  0  0  0  0  0  0
  -10.9529  -25.8482   13.0666 H   0  0  0  0  0  0  0  0  0  0  0  0
  -10.2981  -26.6387   11.2093 H   0  0  0  0  0  0  0  0  0  0  0  0
  -10.1491  -27.2563    9.0075 H   0  0  0  0  0  0  0  0  0  0  0  0
  -11.4092  -28.4536    9.3282 H   0  0  0  0  0  0  0  0  0  0  0  0
  -13.8793  -27.7349    9.2492 H   0  0  0  0  0  0  0  0  0  0  0  0
  -15.4838  -26.3744    7.9331 H   0  0  0  0  0  0  0  0  0  0  0  0
  -14.6101  -24.4538    6.5944 H   0  0  0  0  0  0  0  0  0  0  0  0
  -10.7377  -25.1968    7.7561 H   0  0  0  0  0  0  0  0  0  0  0  0
  -11.0712  -28.8581   13.5334 H   0  0  0  0  0  0  0  0  0  0  0  0
   -9.6686  -27.8543   13.2166 H   0  0  0  0  0  0  0  0  0  0  0  0
   -9.7574  -26.8516   15.5138 H   0  0  0  0  0  0  0  0  0  0  0  0
   -9.7645  -28.5555   15.5017 H   0  0  0  0  0  0  0  0  0  0  0  0
  1  2  1  0
  2  3  1  0
  3  4  2  3
  4  5  1  0
  5  6  2  0
  5  7  1  0
  7  8  1  0
  8  9  1  0
  9 10  1  0
 10 11  1  0
 11 12  2  0
 11 13  1  0
 13 14  1  0
 14 15  1  0
 15 16  2  0
 16 17  1  0
 17 18  2  0
 18 19  1  0
 19 20  2  0
 10 21  1  0
 21 22  1  0
 22  7  1  0
 20 15  1  0
  1 23  1  0
  1 24  1  0
  1 25  1  0
  4 26  1  0
  8 27  1  0
  8 28  1  0
  9 29  1  0
  9 30  1  0
 10 31  1  0
 13 32  1  0
 14 33  1  0
 14 34  1  0
 16 35  1  0
 17 36  1  0
 18 37  1  0
 20 38  1  0
 21 39  1  0
 21 40  1  0
 22 41  1  0
 22 42  1  0
M  END
>  <Energy>  (1131) 
109.47775928756248

>  <compound_id>  (1131) 
13957

>  <target_id>  (1131) 
1

>  <reference_id>  (1131) 
9

>  <inspiration_ids>  (1131) 
[9, 48]

>  <energy_score>  (1131) 
35.68895169776326

>  <distance_score>  (1131) 
2.305203256236639

>  <path>  (1131) 
/opt/xchem-fragalysis-2/maxwin/BulkDock/SCRATCH/511014/C13957-P9/C13957-P9.minimised.mol

>  <scratch_subdir>  (1131) 
/opt/xchem-fragalysis-2/maxwin/BulkDock/SCRATCH/511014/C13957-P9

>  <fragmenstein_runtime>  (1131) 
5.940660238265991

>  <fragmenstein_outcome>  (1131) 
too moved

>  <fragmenstein_mode>  (1131) 
expansion

>  <fragmenstein_error>  (1131) 


$$$$
C13957-P48
     RDKit          3D

 42 43  0  0  0  0  0  0  0  0999 V2000
  -15.7867  -26.8184   17.6564 C   0  0  0  0  0  0  0  0  0  0  0  0
  -14.8164  -27.8440   17.8391 O   0  0  0  0  0  0  0  0  0  0  0  0
  -14.0264  -27.9088   16.6818 N   0  0  0  0  0  0  0  0  0  0  0  0
  -13.0818  -28.7708   16.8708 C   0  0  0  0  0  0  0  0  0  0  0  0
  -12.0554  -29.0759   15.8003 C   0  0  0  0  0  0  0  0  0  0  0  0
  -11.7400  -30.2284   15.6697 O   0  0  0  0  0  0  0  0  0  0  0  0
  -11.5554  -27.9029   15.1726 N   0  0  0  0  0  0  0  0  0  0  0  0
  -12.3523  -27.6041   13.9081 C   0  0  0  0  0  0  0  0  0  0  0  0
  -12.4397  -26.1190   13.5074 C   0  0  0  0  0  0  0  0  0  0  0  0
  -11.0776  -25.4873   13.2570 C   0  0  0  0  0  0  0  0  0  0  0  0
  -10.7041  -25.2392   11.7749 C   0  0  0  0  0  0  0  0  0  0  0  0
  -10.3027  -24.1498   11.4829 O   0  0  0  0  0  0  0  0  0  0  0  0
  -10.8594  -26.4172   10.9846 N   0  0  0  0  0  0  0  0  0  0  0  0
  -10.6735  -26.6400    9.5750 C   0  0  0  0  0  0  0  0  0  0  0  0
  -11.9524  -26.4458    8.8188 C   0  0  0  0  0  0  0  0  0  0  0  0
  -12.5590  -27.4969    8.1282 C   0  0  0  0  0  0  0  0  0  0  0  0
  -13.7321  -27.2671    7.4153 C   0  0  0  0  0  0  0  0  0  0  0  0
  -14.2693  -25.9904    7.4231 C   0  0  0  0  0  0  0  0  0  0  0  0
  -13.7220  -24.9511    8.0850 N   0  0  0  0  0  0  0  0  0  0  0  0
  -12.5734  -25.1997    8.7553 C   0  0  0  0  0  0  0  0  0  0  0  0
   -9.9995  -26.2650   13.9839 C   0  0  0  0  0  0  0  0  0  0  0  0
  -10.4050  -27.7120   14.2345 C   0  0  0  0  0  0  0  0  0  0  0  0
  -16.4187  -26.7797   18.5472 H   0  0  0  0  0  0  0  0  0  0  0  0
  -16.4152  -27.0408   16.7885 H   0  0  0  0  0  0  0  0  0  0  0  0
  -15.2931  -25.8503   17.5268 H   0  0  0  0  0  0  0  0  0  0  0  0
  -12.9597  -29.3493   17.8012 H   0  0  0  0  0  0  0  0  0  0  0  0
  -13.3914  -27.8552   14.1736 H   0  0  0  0  0  0  0  0  0  0  0  0
  -12.2060  -28.3084   13.0709 H   0  0  0  0  0  0  0  0  0  0  0  0
  -12.9204  -25.5817   14.3362 H   0  0  0  0  0  0  0  0  0  0  0  0
  -13.1017  -26.0042   12.6414 H   0  0  0  0  0  0  0  0  0  0  0  0
  -11.1128  -24.4754   13.6887 H   0  0  0  0  0  0  0  0  0  0  0  0
  -11.1479  -27.1754   11.5799 H   0  0  0  0  0  0  0  0  0  0  0  0
   -9.9144  -25.9444    9.2029 H   0  0  0  0  0  0  0  0  0  0  0  0
  -10.2886  -27.6579    9.4544 H   0  0  0  0  0  0  0  0  0  0  0  0
  -12.1200  -28.4911    8.1276 H   0  0  0  0  0  0  0  0  0  0  0  0
  -14.2163  -28.0644    6.8626 H   0  0  0  0  0  0  0  0  0  0  0  0
  -15.1824  -25.7643    6.8801 H   0  0  0  0  0  0  0  0  0  0  0  0
  -12.1519  -24.3333    9.2571 H   0  0  0  0  0  0  0  0  0  0  0  0
   -9.0566  -26.2463   13.4290 H   0  0  0  0  0  0  0  0  0  0  0  0
   -9.8148  -25.7874   14.9537 H   0  0  0  0  0  0  0  0  0  0  0  0
   -9.5754  -28.1228   14.8337 H   0  0  0  0  0  0  0  0  0  0  0  0
  -10.3455  -28.3845   13.3620 H   0  0  0  0  0  0  0  0  0  0  0  0
  1  2  1  0
  2  3  1  0
  3  4  2  3
  4  5  1  0
  5  6  2  0
  5  7  1  0
  7  8  1  0
  8  9  1  0
  9 10  1  0
 10 11  1  0
 11 12  2  0
 11 13  1  0
 13 14  1  0
 14 15  1  0
 15 16  2  0
 16 17  1  0
 17 18  2  0
 18 19  1  0
 19 20  2  0
 10 21  1  0
 21 22  1  0
 22  7  1  0
 20 15  1  0
  1 23  1  0
  1 24  1  0
  1 25  1  0
  4 26  1  0
  8 27  1  0
  8 28  1  0
  9 29  1  0
  9 30  1  0
 10 31  1  0
 13 32  1  0
 14 33  1  0
 14 34  1  0
 16 35  1  0
 17 36  1  0
 18 37  1  0
 20 38  1  0
 21 39  1  0
 21 40  1  0
 22 41  1  0
 22 42  1  0
M  END
>  <Energy>  (1132) 
99.041719378462503

>  <compound_id>  (1132) 
13957

>  <target_id>  (1132) 
1

>  <reference_id>  (1132) 
48

>  <inspiration_ids>  (1132) 
[9, 48]

>  <energy_score>  (1132) 
25.252911788662487

>  <distance_score>  (1132) 
1.7266175897508773

>  <path>  (1132) 
/opt/xchem-fragalysis-2/maxwin/BulkDock/SCRATCH/511014/C13957-P48/C13957-P48.minimised.mol

>  <scratch_subdir>  (1132) 
/opt/xchem-fragalysis-2/maxwin/BulkDock/SCRATCH/511014/C13957-P48

>  <fragmenstein_runtime>  (1132) 
4.555497407913208

>  <fragmenstein_outcome>  (1132) 
too moved

>  <fragmenstein_mode>  (1132) 
expansion

>  <fragmenstein_error>  (1132) 


$$$$
C13959-P9
     RDKit          3D

 48 49  0  0  0  0  0  0  0  0999 V2000
  -11.6599  -24.7335   11.1742 C   0  0  0  0  0  0  0  0  0  0  0  0
  -11.3456  -24.4952   12.5800 N   0  0  0  0  0  0  0  0  0  0  0  0
  -10.0207  -23.9193   12.7249 C   0  0  0  0  0  0  0  0  0  0  0  0
  -11.5678  -25.7465   13.3170 C   0  0  0  0  0  0  0  0  0  0  0  0
  -13.0565  -25.7655   13.7600 C   0  0  0  0  0  0  0  0  0  0  0  0
  -13.3461  -26.8307   14.8223 C   0  0  0  0  0  0  0  0  0  0  0  0
  -12.3675  -27.8739   14.6259 N   0  0  0  0  0  0  0  0  0  0  0  0
  -12.7514  -29.2573   14.8857 C   0  0  0  0  0  0  0  0  0  0  0  0
  -12.2414  -30.1459   13.7104 C   0  0  0  0  0  0  0  0  0  0  0  0
  -11.8286  -31.2304   13.8535 O   0  0  0  0  0  0  0  0  0  0  0  0
  -12.4261  -29.3000   12.4171 N   0  0  0  0  0  0  0  0  0  0  0  0
  -12.0547  -29.5799   11.0612 C   0  0  0  0  0  0  0  0  0  0  0  0
  -13.2839  -29.5008   10.2148 C   0  0  0  0  0  0  0  0  0  0  0  0
  -13.6660  -28.6057    9.2841 C   0  0  0  0  0  0  0  0  0  0  0  0
  -13.0073  -27.3820    8.7976 C   0  0  0  0  0  0  0  0  0  0  0  0
  -11.6508  -27.2909    8.5074 C   0  0  0  0  0  0  0  0  0  0  0  0
  -11.1342  -26.0945    8.0109 C   0  0  0  0  0  0  0  0  0  0  0  0
  -11.9931  -25.0262    7.7971 C   0  0  0  0  0  0  0  0  0  0  0  0
  -13.3116  -25.0689    8.0561 N   0  0  0  0  0  0  0  0  0  0  0  0
  -13.7823  -26.2476    8.5286 C   0  0  0  0  0  0  0  0  0  0  0  0
  -11.0143  -27.4959   15.0265 C   0  0  0  0  0  0  0  0  0  0  0  0
  -10.6778  -26.0821   14.5230 C   0  0  0  0  0  0  0  0  0  0  0  0
  -10.9440  -25.4279   10.7246 H   0  0  0  0  0  0  0  0  0  0  0  0
  -11.6444  -23.8119   10.6091 H   0  0  0  0  0  0  0  0  0  0  0  0
  -12.6696  -25.1365   11.0541 H   0  0  0  0  0  0  0  0  0  0  0  0
   -9.9768  -22.9616   12.1988 H   0  0  0  0  0  0  0  0  0  0  0  0
   -9.2329  -24.5760   12.3416 H   0  0  0  0  0  0  0  0  0  0  0  0
   -9.8142  -23.6792   13.7726 H   0  0  0  0  0  0  0  0  0  0  0  0
  -11.4011  -26.5769   12.6147 H   0  0  0  0  0  0  0  0  0  0  0  0
  -13.3603  -24.7892   14.1579 H   0  0  0  0  0  0  0  0  0  0  0  0
  -13.6906  -25.9568   12.8847 H   0  0  0  0  0  0  0  0  0  0  0  0
  -13.2874  -26.4137   15.8350 H   0  0  0  0  0  0  0  0  0  0  0  0
  -14.3729  -27.1880   14.6824 H   0  0  0  0  0  0  0  0  0  0  0  0
  -13.8395  -29.3851   14.9157 H   0  0  0  0  0  0  0  0  0  0  0  0
  -12.3369  -29.6230   15.8311 H   0  0  0  0  0  0  0  0  0  0  0  0
  -12.7346  -28.3644   12.6645 H   0  0  0  0  0  0  0  0  0  0  0  0
  -11.2924  -28.8506   10.7836 H   0  0  0  0  0  0  0  0  0  0  0  0
  -11.6148  -30.5800   11.0086 H   0  0  0  0  0  0  0  0  0  0  0  0
  -13.9731  -30.3271   10.3965 H   0  0  0  0  0  0  0  0  0  0  0  0
  -14.6364  -28.7805    8.8151 H   0  0  0  0  0  0  0  0  0  0  0  0
  -10.9881  -28.1411    8.6344 H   0  0  0  0  0  0  0  0  0  0  0  0
  -10.0795  -25.9963    7.7718 H   0  0  0  0  0  0  0  0  0  0  0  0
  -11.6258  -24.0884    7.3884 H   0  0  0  0  0  0  0  0  0  0  0  0
  -14.8550  -26.2524    8.7103 H   0  0  0  0  0  0  0  0  0  0  0  0
  -10.8907  -27.5399   16.1153 H   0  0  0  0  0  0  0  0  0  0  0  0
  -10.2947  -28.1990   14.5900 H   0  0  0  0  0  0  0  0  0  0  0  0
  -10.8451  -25.3585   15.3225 H   0  0  0  0  0  0  0  0  0  0  0  0
   -9.6155  -26.0533   14.2617 H   0  0  0  0  0  0  0  0  0  0  0  0
  1  2  1  0
  2  3  1  0
  2  4  1  0
  4  5  1  0
  5  6  1  0
  6  7  1  0
  7  8  1  0
  8  9  1  0
  9 10  2  0
  9 11  1  0
 11 12  1  0
 12 13  1  0
 13 14  2  3
 14 15  1  0
 15 16  2  0
 16 17  1  0
 17 18  2  0
 18 19  1  0
 19 20  2  0
  7 21  1  0
 21 22  1  0
 22  4  1  0
 20 15  1  0
  1 23  1  0
  1 24  1  0
  1 25  1  0
  3 26  1  0
  3 27  1  0
  3 28  1  0
  4 29  1  0
  5 30  1  0
  5 31  1  0
  6 32  1  0
  6 33  1  0
  8 34  1  0
  8 35  1  0
 11 36  1  0
 12 37  1  0
 12 38  1  0
 13 39  1  0
 14 40  1  0
 16 41  1  0
 17 42  1  0
 18 43  1  0
 20 44  1  0
 21 45  1  0
 21 46  1  0
 22 47  1  0
 22 48  1  0
M  END
>  <Energy>  (1133) 
75.930069643437804

>  <compound_id>  (1133) 
13959

>  <target_id>  (1133) 
1

>  <reference_id>  (1133) 
9

>  <inspiration_ids>  (1133) 
[9, 48]

>  <energy_score>  (1133) 
-36.9944142509587

>  <distance_score>  (1133) 
2.3878231400893335

>  <path>  (1133) 
/opt/xchem-fragalysis-2/maxwin/BulkDock/SCRATCH/511014/C13959-P9/C13959-P9.minimised.mol

>  <scratch_subdir>  (1133) 
/opt/xchem-fragalysis-2/maxwin/BulkDock/SCRATCH/511014/C13959-P9

>  <fragmenstein_runtime>  (1133) 
3.387500286102295

>  <fragmenstein_outcome>  (1133) 
too moved

>  <fragmenstein_mode>  (1133) 
expansion

>  <fragmenstein_error>  (1133) 


$$$$
C13959-P48
     RDKit          3D

 48 49  0  0  0  0  0  0  0  0999 V2000
  -11.5867  -24.3542   11.2897 C   0  0  0  0  0  0  0  0  0  0  0  0
  -11.2517  -24.3265   12.7097 N   0  0  0  0  0  0  0  0  0  0  0  0
   -9.9040  -23.8065   12.8850 C   0  0  0  0  0  0  0  0  0  0  0  0
  -11.4641  -25.6597   13.2988 C   0  0  0  0  0  0  0  0  0  0  0  0
  -12.9902  -25.9215   13.3907 C   0  0  0  0  0  0  0  0  0  0  0  0
  -13.3418  -27.0649   14.3398 C   0  0  0  0  0  0  0  0  0  0  0  0
  -12.1892  -27.9552   14.3974 N   0  0  0  0  0  0  0  0  0  0  0  0
  -12.5143  -29.3422   14.7559 C   0  0  0  0  0  0  0  0  0  0  0  0
  -12.9199  -30.1586   13.4872 C   0  0  0  0  0  0  0  0  0  0  0  0
  -13.4736  -31.1858   13.5452 O   0  0  0  0  0  0  0  0  0  0  0  0
  -12.4045  -29.3623   12.2590 N   0  0  0  0  0  0  0  0  0  0  0  0
  -12.3804  -29.7082   10.8711 C   0  0  0  0  0  0  0  0  0  0  0  0
  -13.6734  -29.2957   10.2515 C   0  0  0  0  0  0  0  0  0  0  0  0
  -13.9997  -28.2692    9.4446 C   0  0  0  0  0  0  0  0  0  0  0  0
  -13.2128  -27.1420    8.9133 C   0  0  0  0  0  0  0  0  0  0  0  0
  -11.8702  -27.1986    8.5595 C   0  0  0  0  0  0  0  0  0  0  0  0
  -11.2476  -26.0644    8.0398 C   0  0  0  0  0  0  0  0  0  0  0  0
  -11.9938  -24.9101    7.8556 C   0  0  0  0  0  0  0  0  0  0  0  0
  -13.2944  -24.8062    8.1744 N   0  0  0  0  0  0  0  0  0  0  0  0
  -13.8663  -25.9250    8.6779 C   0  0  0  0  0  0  0  0  0  0  0  0
  -11.0856  -27.3611   15.1447 C   0  0  0  0  0  0  0  0  0  0  0  0
  -10.8346  -25.9166   14.6811 C   0  0  0  0  0  0  0  0  0  0  0  0
  -11.0144  -25.1177   10.7554 H   0  0  0  0  0  0  0  0  0  0  0  0
  -11.3593  -23.3892   10.8482 H   0  0  0  0  0  0  0  0  0  0  0  0
  -12.6548  -24.5192   11.1272 H   0  0  0  0  0  0  0  0  0  0  0  0
   -9.8031  -22.8247   12.4091 H   0  0  0  0  0  0  0  0  0  0  0  0
   -9.1466  -24.4794   12.4702 H   0  0  0  0  0  0  0  0  0  0  0  0
   -9.7004  -23.6259   13.9447 H   0  0  0  0  0  0  0  0  0  0  0  0
  -11.0168  -26.4027   12.6211 H   0  0  0  0  0  0  0  0  0  0  0  0
  -13.5212  -25.0204   13.7244 H   0  0  0  0  0  0  0  0  0  0  0  0
  -13.3754  -26.1679   12.3931 H   0  0  0  0  0  0  0  0  0  0  0  0
  -13.6005  -26.6876   15.3373 H   0  0  0  0  0  0  0  0  0  0  0  0
  -14.2339  -27.5729   13.9536 H   0  0  0  0  0  0  0  0  0  0  0  0
  -13.3191  -29.3924   15.4972 H   0  0  0  0  0  0  0  0  0  0  0  0
  -11.6349  -29.8555   15.1633 H   0  0  0  0  0  0  0  0  0  0  0  0
  -12.0409  -28.4626   12.5654 H   0  0  0  0  0  0  0  0  0  0  0  0
  -11.5073  -29.2283   10.4322 H   0  0  0  0  0  0  0  0  0  0  0  0
  -12.2608  -30.7926   10.7837 H   0  0  0  0  0  0  0  0  0  0  0  0
  -14.4880  -29.9768   10.5074 H   0  0  0  0  0  0  0  0  0  0  0  0
  -15.0498  -28.2263    9.1460 H   0  0  0  0  0  0  0  0  0  0  0  0
  -11.2970  -28.1144    8.6433 H   0  0  0  0  0  0  0  0  0  0  0  0
  -10.2013  -26.0833    7.7501 H   0  0  0  0  0  0  0  0  0  0  0  0
  -11.5474  -24.0214    7.4175 H   0  0  0  0  0  0  0  0  0  0  0  0
  -14.9220  -25.8073    8.9138 H   0  0  0  0  0  0  0  0  0  0  0  0
  -11.2708  -27.3766   16.2260 H   0  0  0  0  0  0  0  0  0  0  0  0
  -10.1762  -27.9472   14.9637 H   0  0  0  0  0  0  0  0  0  0  0  0
  -11.2694  -25.2288   15.4100 H   0  0  0  0  0  0  0  0  0  0  0  0
   -9.7541  -25.7486   14.6702 H   0  0  0  0  0  0  0  0  0  0  0  0
  1  2  1  0
  2  3  1  0
  2  4  1  0
  4  5  1  0
  5  6  1  0
  6  7  1  0
  7  8  1  0
  8  9  1  0
  9 10  2  0
  9 11  1  0
 11 12  1  0
 12 13  1  0
 13 14  2  3
 14 15  1  0
 15 16  2  0
 16 17  1  0
 17 18  2  0
 18 19  1  0
 19 20  2  0
  7 21  1  0
 21 22  1  0
 22  4  1  0
 20 15  1  0
  1 23  1  0
  1 24  1  0
  1 25  1  0
  3 26  1  0
  3 27  1  0
  3 28  1  0
  4 29  1  0
  5 30  1  0
  5 31  1  0
  6 32  1  0
  6 33  1  0
  8 34  1  0
  8 35  1  0
 11 36  1  0
 12 37  1  0
 12 38  1  0
 13 39  1  0
 14 40  1  0
 16 41  1  0
 17 42  1  0
 18 43  1  0
 20 44  1  0
 21 45  1  0
 21 46  1  0
 22 47  1  0
 22 48  1  0
M  END
>  <Energy>  (1134) 
70.745168517076792

>  <compound_id>  (1134) 
13959

>  <target_id>  (1134) 
1

>  <reference_id>  (1134) 
48

>  <inspiration_ids>  (1134) 
[9, 48]

>  <energy_score>  (1134) 
-42.179315377321075

>  <distance_score>  (1134) 
2.36749939758139

>  <path>  (1134) 
/opt/xchem-fragalysis-2/maxwin/BulkDock/SCRATCH/511014/C13959-P48/C13959-P48.minimised.mol

>  <scratch_subdir>  (1134) 
/opt/xchem-fragalysis-2/maxwin/BulkDock/SCRATCH/511014/C13959-P48

>  <fragmenstein_runtime>  (1134) 
3.805238962173462

>  <fragmenstein_outcome>  (1134) 
too moved

>  <fragmenstein_mode>  (1134) 
expansion

>  <fragmenstein_error>  (1134) 


$$$$
C13960-P9
     RDKit          3D

 44 45  0  0  0  0  0  0  0  0999 V2000
  -15.9424  -31.3740   18.1904 C   0  0  0  0  0  0  0  0  0  0  0  0
  -14.7880  -31.8737   18.6559 C   0  0  0  0  0  0  0  0  0  0  0  0
  -13.3923  -31.4225   18.3512 C   0  0  0  0  0  0  0  0  0  0  0  0
  -13.3821  -30.1325   17.7286 N   0  0  0  0  0  0  0  0  0  0  0  0
  -12.5732  -29.6065   16.5039 C   0  0  0  0  0  0  0  0  0  0  0  0
  -11.8533  -30.1689   15.7740 O   0  0  0  0  0  0  0  0  0  0  0  0
  -12.8885  -28.0849   16.4380 C   0  0  0  0  0  0  0  0  0  0  0  0
  -12.5427  -27.4764   15.1336 N   0  0  0  0  0  0  0  0  0  0  0  0
  -13.3176  -26.2479   14.9416 C   0  0  0  0  0  0  0  0  0  0  0  0
  -13.0748  -25.6686   13.5577 C   0  0  0  0  0  0  0  0  0  0  0  0
  -11.5834  -25.4728   13.2560 C   0  0  0  0  0  0  0  0  0  0  0  0
  -11.4286  -24.9845   11.8097 C   0  0  0  0  0  0  0  0  0  0  0  0
  -11.0285  -23.9110   11.5773 O   0  0  0  0  0  0  0  0  0  0  0  0
  -11.9732  -26.0845   10.8558 N   0  0  0  0  0  0  0  0  0  0  0  0
  -12.2151  -26.0532    9.4900 C   0  0  0  0  0  0  0  0  0  0  0  0
  -12.3744  -27.2342    8.7796 C   0  0  0  0  0  0  0  0  0  0  0  0
  -12.6685  -27.1691    7.4190 C   0  0  0  0  0  0  0  0  0  0  0  0
  -12.8379  -25.9233    6.8327 C   0  0  0  0  0  0  0  0  0  0  0  0
  -12.7336  -24.7606    7.5044 N   0  0  0  0  0  0  0  0  0  0  0  0
  -12.3997  -24.8528    8.8122 C   0  0  0  0  0  0  0  0  0  0  0  0
  -10.7511  -26.6985   13.6193 C   0  0  0  0  0  0  0  0  0  0  0  0
  -11.0976  -27.2055   15.0239 C   0  0  0  0  0  0  0  0  0  0  0  0
  -15.9790  -30.5505   17.4850 H   0  0  0  0  0  0  0  0  0  0  0  0
  -16.8919  -31.8115   18.4856 H   0  0  0  0  0  0  0  0  0  0  0  0
  -14.8441  -32.7265   19.3311 H   0  0  0  0  0  0  0  0  0  0  0  0
  -12.8271  -31.3292   19.2837 H   0  0  0  0  0  0  0  0  0  0  0  0
  -12.8794  -32.1404   17.7048 H   0  0  0  0  0  0  0  0  0  0  0  0
  -13.9703  -29.3929   18.0884 H   0  0  0  0  0  0  0  0  0  0  0  0
  -12.3820  -27.5795   17.2693 H   0  0  0  0  0  0  0  0  0  0  0  0
  -13.9712  -27.9890   16.5909 H   0  0  0  0  0  0  0  0  0  0  0  0
  -14.3908  -26.4615   15.0246 H   0  0  0  0  0  0  0  0  0  0  0  0
  -13.0819  -25.5165   15.7201 H   0  0  0  0  0  0  0  0  0  0  0  0
  -13.5489  -26.3339   12.8264 H   0  0  0  0  0  0  0  0  0  0  0  0
  -13.5969  -24.7073   13.4675 H   0  0  0  0  0  0  0  0  0  0  0  0
  -11.2265  -24.6488   13.8897 H   0  0  0  0  0  0  0  0  0  0  0  0
  -12.1583  -26.9290   11.3835 H   0  0  0  0  0  0  0  0  0  0  0  0
  -12.2539  -28.2009    9.2579 H   0  0  0  0  0  0  0  0  0  0  0  0
  -12.7738  -28.0720    6.8278 H   0  0  0  0  0  0  0  0  0  0  0  0
  -13.0740  -25.8286    5.7766 H   0  0  0  0  0  0  0  0  0  0  0  0
  -12.3287  -23.8969    9.3167 H   0  0  0  0  0  0  0  0  0  0  0  0
  -10.9033  -27.5133   12.9024 H   0  0  0  0  0  0  0  0  0  0  0  0
   -9.6845  -26.4481   13.5698 H   0  0  0  0  0  0  0  0  0  0  0  0
  -10.7823  -26.4686   15.7737 H   0  0  0  0  0  0  0  0  0  0  0  0
  -10.5138  -28.1141   15.2053 H   0  0  0  0  0  0  0  0  0  0  0  0
  1  2  2  0
  2  3  1  0
  3  4  1  0
  4  5  1  0
  5  6  2  0
  5  7  1  0
  7  8  1  0
  8  9  1  0
  9 10  1  0
 10 11  1  0
 11 12  1  0
 12 13  2  0
 12 14  1  0
 14 15  1  0
 15 16  2  0
 16 17  1  0
 17 18  2  0
 18 19  1  0
 19 20  2  0
 11 21  1  0
 21 22  1  0
 22  8  1  0
 20 15  1  0
  1 23  1  0
  1 24  1  0
  2 25  1  0
  3 26  1  0
  3 27  1  0
  4 28  1  0
  7 29  1  0
  7 30  1  0
  9 31  1  0
  9 32  1  0
 10 33  1  0
 10 34  1  0
 11 35  1  0
 14 36  1  0
 16 37  1  0
 17 38  1  0
 18 39  1  0
 20 40  1  0
 21 41  1  0
 21 42  1  0
 22 43  1  0
 22 44  1  0
M  END
>  <Energy>  (1135) 
62.853113040407884

>  <compound_id>  (1135) 
13960

>  <target_id>  (1135) 
1

>  <reference_id>  (1135) 
9

>  <inspiration_ids>  (1135) 
[9, 48]

>  <energy_score>  (1135) 
-21.76185898211942

>  <distance_score>  (1135) 
1.1683792110897622

>  <path>  (1135) 
/opt/xchem-fragalysis-2/maxwin/BulkDock/SCRATCH/511014/C13960-P9/C13960-P9.minimised.mol

>  <scratch_subdir>  (1135) 
/opt/xchem-fragalysis-2/maxwin/BulkDock/SCRATCH/511014/C13960-P9

>  <fragmenstein_runtime>  (1135) 
3.2958436012268066

>  <fragmenstein_outcome>  (1135) 
too moved

>  <fragmenstein_mode>  (1135) 
expansion

>  <fragmenstein_error>  (1135) 


$$$$
C13960-P48
     RDKit          3D

 44 45  0  0  0  0  0  0  0  0999 V2000
  -17.0838  -28.3646   18.5862 C   0  0  0  0  0  0  0  0  0  0  0  0
  -16.4750  -29.5600   18.5928 C   0  0  0  0  0  0  0  0  0  0  0  0
  -15.1537  -29.9327   17.9945 C   0  0  0  0  0  0  0  0  0  0  0  0
  -14.3334  -28.7834   17.7581 N   0  0  0  0  0  0  0  0  0  0  0  0
  -13.0592  -28.6157   16.8834 C   0  0  0  0  0  0  0  0  0  0  0  0
  -12.5310  -29.3694   16.1633 O   0  0  0  0  0  0  0  0  0  0  0  0
  -12.5780  -27.1500   17.0956 C   0  0  0  0  0  0  0  0  0  0  0  0
  -12.1974  -26.4514   15.8561 N   0  0  0  0  0  0  0  0  0  0  0  0
  -13.2965  -26.3164   14.9027 C   0  0  0  0  0  0  0  0  0  0  0  0
  -12.8577  -26.3597   13.4431 C   0  0  0  0  0  0  0  0  0  0  0  0
  -11.5544  -25.5912   13.1834 C   0  0  0  0  0  0  0  0  0  0  0  0
  -11.0895  -25.9324   11.7605 C   0  0  0  0  0  0  0  0  0  0  0  0
  -10.1891  -26.6354   11.5140 O   0  0  0  0  0  0  0  0  0  0  0  0
  -12.1095  -25.2288   10.8145 N   0  0  0  0  0  0  0  0  0  0  0  0
  -12.2759  -25.3227    9.4406 C   0  0  0  0  0  0  0  0  0  0  0  0
  -11.5153  -26.1826    8.6589 C   0  0  0  0  0  0  0  0  0  0  0  0
  -11.7361  -26.2214    7.2851 C   0  0  0  0  0  0  0  0  0  0  0  0
  -12.7090  -25.3921    6.7484 C   0  0  0  0  0  0  0  0  0  0  0  0
  -13.4755  -24.5553    7.4819 N   0  0  0  0  0  0  0  0  0  0  0  0
  -13.2421  -24.5480    8.8116 C   0  0  0  0  0  0  0  0  0  0  0  0
  -10.4757  -25.9103   14.2312 C   0  0  0  0  0  0  0  0  0  0  0  0
  -10.9443  -26.9256   15.2720 C   0  0  0  0  0  0  0  0  0  0  0  0
  -16.6630  -27.4935   18.0950 H   0  0  0  0  0  0  0  0  0  0  0  0
  -18.0576  -28.2393   19.0521 H   0  0  0  0  0  0  0  0  0  0  0  0
  -16.9965  -30.3859   19.0753 H   0  0  0  0  0  0  0  0  0  0  0  0
  -14.6015  -30.5807   18.6821 H   0  0  0  0  0  0  0  0  0  0  0  0
  -15.2818  -30.4780   17.0548 H   0  0  0  0  0  0  0  0  0  0  0  0
  -14.4652  -27.9568   18.3253 H   0  0  0  0  0  0  0  0  0  0  0  0
  -11.7356  -27.1767   17.7918 H   0  0  0  0  0  0  0  0  0  0  0  0
  -13.3523  -26.5476   17.5825 H   0  0  0  0  0  0  0  0  0  0  0  0
  -14.0636  -27.0883   15.0369 H   0  0  0  0  0  0  0  0  0  0  0  0
  -13.7950  -25.3597   15.0975 H   0  0  0  0  0  0  0  0  0  0  0  0
  -12.7292  -27.4087   13.1405 H   0  0  0  0  0  0  0  0  0  0  0  0
  -13.6738  -25.9717   12.8219 H   0  0  0  0  0  0  0  0  0  0  0  0
  -11.7466  -24.5108   13.2296 H   0  0  0  0  0  0  0  0  0  0  0  0
  -12.7132  -24.6238   11.3572 H   0  0  0  0  0  0  0  0  0  0  0  0
  -10.7458  -26.8148    9.0918 H   0  0  0  0  0  0  0  0  0  0  0  0
  -11.1480  -26.8710    6.6466 H   0  0  0  0  0  0  0  0  0  0  0  0
  -12.9021  -25.3807    5.6793 H   0  0  0  0  0  0  0  0  0  0  0  0
  -13.8837  -23.8755    9.3709 H   0  0  0  0  0  0  0  0  0  0  0  0
   -9.5425  -26.2665   13.7827 H   0  0  0  0  0  0  0  0  0  0  0  0
  -10.2126  -24.9746   14.7423 H   0  0  0  0  0  0  0  0  0  0  0  0
  -10.1684  -27.0023   16.0431 H   0  0  0  0  0  0  0  0  0  0  0  0
  -11.0435  -27.9157   14.8137 H   0  0  0  0  0  0  0  0  0  0  0  0
  1  2  2  0
  2  3  1  0
  3  4  1  0
  4  5  1  0
  5  6  2  0
  5  7  1  0
  7  8  1  0
  8  9  1  0
  9 10  1  0
 10 11  1  0
 11 12  1  0
 12 13  2  0
 12 14  1  0
 14 15  1  0
 15 16  2  0
 16 17  1  0
 17 18  2  0
 18 19  1  0
 19 20  2  0
 11 21  1  0
 21 22  1  0
 22  8  1  0
 20 15  1  0
  1 23  1  0
  1 24  1  0
  2 25  1  0
  3 26  1  0
  3 27  1  0
  4 28  1  0
  7 29  1  0
  7 30  1  0
  9 31  1  0
  9 32  1  0
 10 33  1  0
 10 34  1  0
 11 35  1  0
 14 36  1  0
 16 37  1  0
 17 38  1  0
 18 39  1  0
 20 40  1  0
 21 41  1  0
 21 42  1  0
 22 43  1  0
 22 44  1  0
M  END
>  <Energy>  (1136) 
65.685695266892651

>  <compound_id>  (1136) 
13960

>  <target_id>  (1136) 
1

>  <reference_id>  (1136) 
48

>  <inspiration_ids>  (1136) 
[9, 48]

>  <energy_score>  (1136) 
-18.929276755634476

>  <distance_score>  (1136) 
1.0163168888704623

>  <path>  (1136) 
/opt/xchem-fragalysis-2/maxwin/BulkDock/SCRATCH/511014/C13960-P48/C13960-P48.minimised.mol

>  <scratch_subdir>  (1136) 
/opt/xchem-fragalysis-2/maxwin/BulkDock/SCRATCH/511014/C13960-P48

>  <fragmenstein_runtime>  (1136) 
3.301983118057251

>  <fragmenstein_outcome>  (1136) 
too moved

>  <fragmenstein_mode>  (1136) 
expansion

>  <fragmenstein_error>  (1136) 


$$$$
C13962-P9
     RDKit          3D

 44 45  0  0  0  0  0  0  0  0999 V2000
  -13.4371  -30.5242   14.2765 O   0  0  0  0  0  0  0  0  0  0  0  0
  -12.7354  -29.6110   14.0822 C   0  0  0  0  0  0  0  0  0  0  0  0
  -12.1792  -28.6799   15.2042 C   0  0  0  0  0  0  0  0  0  0  0  0
  -11.8543  -27.3680   14.6222 N   0  0  0  0  0  0  0  0  0  0  0  0
  -13.0150  -26.4983   14.4040 C   0  0  0  0  0  0  0  0  0  0  0  0
  -12.6392  -25.3341   13.4726 C   0  0  0  0  0  0  0  0  0  0  0  0
  -11.1658  -25.3683   13.0457 C   0  0  0  0  0  0  0  0  0  0  0  0
  -10.7601  -24.1241   12.2628 C   0  0  0  0  0  0  0  0  0  0  0  0
   -9.4245  -24.2378   11.7820 O   0  0  0  0  0  0  0  0  0  0  0  0
  -10.2383  -25.6117   14.2515 C   0  0  0  0  0  0  0  0  0  0  0  0
  -10.7684  -26.6467   15.2524 C   0  0  0  0  0  0  0  0  0  0  0  0
  -12.2282  -28.9979   12.7489 N   0  0  0  0  0  0  0  0  0  0  0  0
  -12.5535  -29.3208   11.3983 C   0  0  0  0  0  0  0  0  0  0  0  0
  -13.7360  -28.4517   11.1266 C   0  0  0  0  0  0  0  0  0  0  0  0
  -13.8731  -27.3067   10.4396 C   0  0  0  0  0  0  0  0  0  0  0  0
  -12.9917  -26.5450    9.5545 C   0  0  0  0  0  0  0  0  0  0  0  0
  -12.0770  -27.1302    8.6835 C   0  0  0  0  0  0  0  0  0  0  0  0
  -11.4559  -26.3476    7.7119 C   0  0  0  0  0  0  0  0  0  0  0  0
  -11.7777  -25.0014    7.6383 C   0  0  0  0  0  0  0  0  0  0  0  0
  -12.6499  -24.3914    8.4690 N   0  0  0  0  0  0  0  0  0  0  0  0
  -13.2343  -25.1779    9.3963 C   0  0  0  0  0  0  0  0  0  0  0  0
  -11.2819  -29.1789   15.5870 H   0  0  0  0  0  0  0  0  0  0  0  0
  -12.9119  -28.5940   16.0131 H   0  0  0  0  0  0  0  0  0  0  0  0
  -13.8442  -27.0503   13.9467 H   0  0  0  0  0  0  0  0  0  0  0  0
  -13.3964  -26.1099   15.3571 H   0  0  0  0  0  0  0  0  0  0  0  0
  -13.2753  -25.3607   12.5815 H   0  0  0  0  0  0  0  0  0  0  0  0
  -12.8667  -24.3864   13.9694 H   0  0  0  0  0  0  0  0  0  0  0  0
  -11.0325  -26.2204   12.3644 H   0  0  0  0  0  0  0  0  0  0  0  0
  -11.4156  -23.9853   11.4009 H   0  0  0  0  0  0  0  0  0  0  0  0
  -10.8178  -23.2260   12.8848 H   0  0  0  0  0  0  0  0  0  0  0  0
   -9.3592  -25.0849   11.3031 H   0  0  0  0  0  0  0  0  0  0  0  0
   -9.2799  -25.9707   13.8616 H   0  0  0  0  0  0  0  0  0  0  0  0
  -10.0433  -24.6699   14.7747 H   0  0  0  0  0  0  0  0  0  0  0  0
  -11.1081  -26.1688   16.1773 H   0  0  0  0  0  0  0  0  0  0  0  0
   -9.9421  -27.3138   15.5261 H   0  0  0  0  0  0  0  0  0  0  0  0
  -11.5623  -28.2545   12.9481 H   0  0  0  0  0  0  0  0  0  0  0  0
  -11.6876  -29.0999   10.7740 H   0  0  0  0  0  0  0  0  0  0  0  0
  -12.8197  -30.3779   11.3211 H   0  0  0  0  0  0  0  0  0  0  0  0
  -14.6292  -28.7966   11.6536 H   0  0  0  0  0  0  0  0  0  0  0  0
  -14.8744  -26.8696   10.4915 H   0  0  0  0  0  0  0  0  0  0  0  0
  -11.8832  -28.1976    8.7007 H   0  0  0  0  0  0  0  0  0  0  0  0
  -10.7463  -26.7788    7.0141 H   0  0  0  0  0  0  0  0  0  0  0  0
  -11.3089  -24.3537    6.9011 H   0  0  0  0  0  0  0  0  0  0  0  0
  -13.9638  -24.6626   10.0164 H   0  0  0  0  0  0  0  0  0  0  0  0
  1  2  2  0
  2  3  1  0
  3  4  1  0
  4  5  1  0
  5  6  1  0
  6  7  1  0
  7  8  1  0
  8  9  1  0
  7 10  1  0
 10 11  1  0
  2 12  1  0
 12 13  1  0
 13 14  1  0
 14 15  2  3
 15 16  1  0
 16 17  2  0
 17 18  1  0
 18 19  2  0
 19 20  1  0
 20 21  2  0
 11  4  1  0
 21 16  1  0
  3 22  1  0
  3 23  1  0
  5 24  1  0
  5 25  1  0
  6 26  1  0
  6 27  1  0
  7 28  1  0
  8 29  1  0
  8 30  1  0
  9 31  1  0
 10 32  1  0
 10 33  1  0
 11 34  1  0
 11 35  1  0
 12 36  1  0
 13 37  1  0
 13 38  1  0
 14 39  1  0
 15 40  1  0
 17 41  1  0
 18 42  1  0
 19 43  1  0
 21 44  1  0
M  END
>  <Energy>  (1137) 
69.799233245217621

>  <compound_id>  (1137) 
13962

>  <target_id>  (1137) 
1

>  <reference_id>  (1137) 
9

>  <inspiration_ids>  (1137) 
[9, 48]

>  <energy_score>  (1137) 
-32.75022361508624

>  <distance_score>  (1137) 
1.8459076486417008

>  <path>  (1137) 
/opt/xchem-fragalysis-2/maxwin/BulkDock/SCRATCH/511014/C13962-P9/C13962-P9.minimised.mol

>  <scratch_subdir>  (1137) 
/opt/xchem-fragalysis-2/maxwin/BulkDock/SCRATCH/511014/C13962-P9

>  <fragmenstein_runtime>  (1137) 
2.764509916305542

>  <fragmenstein_outcome>  (1137) 
too moved

>  <fragmenstein_mode>  (1137) 
expansion

>  <fragmenstein_error>  (1137) 


$$$$
C13962-P48
     RDKit          3D

 44 45  0  0  0  0  0  0  0  0999 V2000
  -12.9843  -29.4775   14.4678 O   0  0  0  0  0  0  0  0  0  0  0  0
  -13.5581  -28.5274   14.0985 C   0  0  0  0  0  0  0  0  0  0  0  0
  -13.9002  -27.3472   15.0577 C   0  0  0  0  0  0  0  0  0  0  0  0
  -12.9495  -26.2137   14.9297 N   0  0  0  0  0  0  0  0  0  0  0  0
  -13.3138  -25.2230   13.9215 C   0  0  0  0  0  0  0  0  0  0  0  0
  -12.1981  -24.5622   13.1116 C   0  0  0  0  0  0  0  0  0  0  0  0
  -10.9903  -25.4732   12.9843 C   0  0  0  0  0  0  0  0  0  0  0  0
   -9.9130  -24.9341   12.0518 C   0  0  0  0  0  0  0  0  0  0  0  0
   -9.5430  -23.5913   12.2960 O   0  0  0  0  0  0  0  0  0  0  0  0
  -10.5049  -25.7330   14.4035 C   0  0  0  0  0  0  0  0  0  0  0  0
  -11.5453  -26.5863   15.1315 C   0  0  0  0  0  0  0  0  0  0  0  0
  -14.0170  -28.1199   12.6704 N   0  0  0  0  0  0  0  0  0  0  0  0
  -13.7822  -28.7467   11.4037 C   0  0  0  0  0  0  0  0  0  0  0  0
  -12.3198  -28.5805   11.1486 C   0  0  0  0  0  0  0  0  0  0  0  0
  -11.6530  -27.7470   10.3334 C   0  0  0  0  0  0  0  0  0  0  0  0
  -12.1446  -26.7511    9.3813 C   0  0  0  0  0  0  0  0  0  0  0  0
  -11.5375  -26.6966    8.1258 C   0  0  0  0  0  0  0  0  0  0  0  0
  -11.9157  -25.7227    7.2083 C   0  0  0  0  0  0  0  0  0  0  0  0
  -12.8848  -24.8104    7.5834 C   0  0  0  0  0  0  0  0  0  0  0  0
  -13.4940  -24.8171    8.7888 N   0  0  0  0  0  0  0  0  0  0  0  0
  -13.1074  -25.7874    9.6546 C   0  0  0  0  0  0  0  0  0  0  0  0
  -13.8578  -27.7348   16.0832 H   0  0  0  0  0  0  0  0  0  0  0  0
  -14.9363  -27.0255   14.8999 H   0  0  0  0  0  0  0  0  0  0  0  0
  -14.0239  -25.6125   13.1943 H   0  0  0  0  0  0  0  0  0  0  0  0
  -13.8869  -24.4324   14.4217 H   0  0  0  0  0  0  0  0  0  0  0  0
  -12.5773  -24.2794   12.1242 H   0  0  0  0  0  0  0  0  0  0  0  0
  -11.9038  -23.6250   13.5953 H   0  0  0  0  0  0  0  0  0  0  0  0
  -11.3050  -26.4319   12.5693 H   0  0  0  0  0  0  0  0  0  0  0  0
   -9.0104  -25.5516   12.1097 H   0  0  0  0  0  0  0  0  0  0  0  0
  -10.2664  -24.9857   11.0195 H   0  0  0  0  0  0  0  0  0  0  0  0
   -9.5192  -23.4431   13.2587 H   0  0  0  0  0  0  0  0  0  0  0  0
   -9.5497  -26.2698   14.3960 H   0  0  0  0  0  0  0  0  0  0  0  0
  -10.3426  -24.7888   14.9322 H   0  0  0  0  0  0  0  0  0  0  0  0
  -11.3303  -26.5700   16.2067 H   0  0  0  0  0  0  0  0  0  0  0  0
  -11.3578  -27.6156   14.8100 H   0  0  0  0  0  0  0  0  0  0  0  0
  -14.5599  -27.2737   12.7202 H   0  0  0  0  0  0  0  0  0  0  0  0
  -14.0364  -29.8076   11.4780 H   0  0  0  0  0  0  0  0  0  0  0  0
  -14.4107  -28.2698   10.6485 H   0  0  0  0  0  0  0  0  0  0  0  0
  -11.7060  -29.2577   11.7469 H   0  0  0  0  0  0  0  0  0  0  0  0
  -10.5651  -27.8424   10.3300 H   0  0  0  0  0  0  0  0  0  0  0  0
  -10.7596  -27.4050    7.8504 H   0  0  0  0  0  0  0  0  0  0  0  0
  -11.4454  -25.6598    6.2334 H   0  0  0  0  0  0  0  0  0  0  0  0
  -13.1991  -24.0217    6.9063 H   0  0  0  0  0  0  0  0  0  0  0  0
  -13.6114  -25.7573   10.6139 H   0  0  0  0  0  0  0  0  0  0  0  0
  1  2  2  0
  2  3  1  0
  3  4  1  0
  4  5  1  0
  5  6  1  0
  6  7  1  0
  7  8  1  0
  8  9  1  0
  7 10  1  0
 10 11  1  0
  2 12  1  0
 12 13  1  0
 13 14  1  0
 14 15  2  3
 15 16  1  0
 16 17  2  0
 17 18  1  0
 18 19  2  0
 19 20  1  0
 20 21  2  0
 11  4  1  0
 21 16  1  0
  3 22  1  0
  3 23  1  0
  5 24  1  0
  5 25  1  0
  6 26  1  0
  6 27  1  0
  7 28  1  0
  8 29  1  0
  8 30  1  0
  9 31  1  0
 10 32  1  0
 10 33  1  0
 11 34  1  0
 11 35  1  0
 12 36  1  0
 13 37  1  0
 13 38  1  0
 14 39  1  0
 15 40  1  0
 17 41  1  0
 18 42  1  0
 19 43  1  0
 21 44  1  0
M  END
>  <Energy>  (1138) 
80.074044435746657

>  <compound_id>  (1138) 
13962

>  <target_id>  (1138) 
1

>  <reference_id>  (1138) 
48

>  <inspiration_ids>  (1138) 
[9, 48]

>  <energy_score>  (1138) 
-22.475412424557504

>  <distance_score>  (1138) 
1.783327009134467

>  <path>  (1138) 
/opt/xchem-fragalysis-2/maxwin/BulkDock/SCRATCH/511014/C13962-P48/C13962-P48.minimised.mol

>  <scratch_subdir>  (1138) 
/opt/xchem-fragalysis-2/maxwin/BulkDock/SCRATCH/511014/C13962-P48

>  <fragmenstein_runtime>  (1138) 
2.1122825145721436

>  <fragmenstein_outcome>  (1138) 
too moved

>  <fragmenstein_mode>  (1138) 
expansion

>  <fragmenstein_error>  (1138) 


$$$$
C13963-P9
     RDKit          3D

 43 44  0  0  0  0  0  0  0  0999 V2000
  -10.5627  -24.0563   12.7489 C   0  0  0  0  0  0  0  0  0  0  0  0
  -11.3049  -25.2913   13.2364 C   0  0  0  0  0  0  0  0  0  0  0  0
  -12.8042  -25.0354   13.5043 C   0  0  0  0  0  0  0  0  0  0  0  0
  -13.4146  -25.9979   14.5398 C   0  0  0  0  0  0  0  0  0  0  0  0
  -12.7156  -27.2532   14.4093 N   0  0  0  0  0  0  0  0  0  0  0  0
  -13.4417  -28.4982   14.6753 C   0  0  0  0  0  0  0  0  0  0  0  0
  -13.0806  -29.5299   13.5607 C   0  0  0  0  0  0  0  0  0  0  0  0
  -13.0287  -30.6857   13.7212 O   0  0  0  0  0  0  0  0  0  0  0  0
  -12.8182  -28.6780   12.2892 N   0  0  0  0  0  0  0  0  0  0  0  0
  -12.3511  -29.0626   10.9953 C   0  0  0  0  0  0  0  0  0  0  0  0
  -11.0853  -28.2780   10.8326 C   0  0  0  0  0  0  0  0  0  0  0  0
  -10.8762  -27.1541   10.1266 C   0  0  0  0  0  0  0  0  0  0  0  0
  -11.8061  -26.5164    9.2008 C   0  0  0  0  0  0  0  0  0  0  0  0
  -11.9901  -27.0628    7.9334 C   0  0  0  0  0  0  0  0  0  0  0  0
  -12.7826  -26.3958    7.0057 C   0  0  0  0  0  0  0  0  0  0  0  0
  -13.3726  -25.1998    7.3814 C   0  0  0  0  0  0  0  0  0  0  0  0
  -13.2377  -24.6455    8.6053 N   0  0  0  0  0  0  0  0  0  0  0  0
  -12.4528  -25.3178    9.4811 C   0  0  0  0  0  0  0  0  0  0  0  0
  -11.3290  -27.2285   14.8670 C   0  0  0  0  0  0  0  0  0  0  0  0
  -10.6251  -25.9313   14.4475 C   0  0  0  0  0  0  0  0  0  0  0  0
  -11.0528  -23.6177   11.8783 H   0  0  0  0  0  0  0  0  0  0  0  0
   -9.5391  -24.3152   12.4598 H   0  0  0  0  0  0  0  0  0  0  0  0
  -10.5039  -23.2911   13.5278 H   0  0  0  0  0  0  0  0  0  0  0  0
  -11.2477  -26.0195   12.4279 H   0  0  0  0  0  0  0  0  0  0  0  0
  -12.9831  -24.0052   13.8225 H   0  0  0  0  0  0  0  0  0  0  0  0
  -13.3449  -25.1471   12.5559 H   0  0  0  0  0  0  0  0  0  0  0  0
  -14.4848  -26.0951   14.3232 H   0  0  0  0  0  0  0  0  0  0  0  0
  -13.3301  -25.6035   15.5585 H   0  0  0  0  0  0  0  0  0  0  0  0
  -13.1913  -28.9122   15.6575 H   0  0  0  0  0  0  0  0  0  0  0  0
  -14.5272  -28.3577   14.6223 H   0  0  0  0  0  0  0  0  0  0  0  0
  -13.0342  -27.7040   12.4824 H   0  0  0  0  0  0  0  0  0  0  0  0
  -12.1613  -30.1384   10.9672 H   0  0  0  0  0  0  0  0  0  0  0  0
  -13.1175  -28.8036   10.2614 H   0  0  0  0  0  0  0  0  0  0  0  0
  -10.2547  -28.6465   11.4351 H   0  0  0  0  0  0  0  0  0  0  0  0
   -9.8962  -26.6804   10.1722 H   0  0  0  0  0  0  0  0  0  0  0  0
  -11.4948  -27.9878    7.6492 H   0  0  0  0  0  0  0  0  0  0  0  0
  -12.9258  -26.7918    6.0065 H   0  0  0  0  0  0  0  0  0  0  0  0
  -13.9918  -24.6411    6.6852 H   0  0  0  0  0  0  0  0  0  0  0  0
  -12.3470  -24.8362   10.4443 H   0  0  0  0  0  0  0  0  0  0  0  0
  -10.7836  -28.0735   14.4300 H   0  0  0  0  0  0  0  0  0  0  0  0
  -11.2692  -27.3369   15.9570 H   0  0  0  0  0  0  0  0  0  0  0  0
  -10.6432  -25.2263   15.2790 H   0  0  0  0  0  0  0  0  0  0  0  0
   -9.5728  -26.1453   14.2312 H   0  0  0  0  0  0  0  0  0  0  0  0
  1  2  1  0
  2  3  1  0
  3  4  1  0
  4  5  1  0
  5  6  1  0
  6  7  1  0
  7  8  2  0
  7  9  1  0
  9 10  1  0
 10 11  1  0
 11 12  2  3
 12 13  1  0
 13 14  2  0
 14 15  1  0
 15 16  2  0
 16 17  1  0
 17 18  2  0
  5 19  1  0
 19 20  1  0
 20  2  1  0
 18 13  1  0
  1 21  1  0
  1 22  1  0
  1 23  1  0
  2 24  1  0
  3 25  1  0
  3 26  1  0
  4 27  1  0
  4 28  1  0
  6 29  1  0
  6 30  1  0
  9 31  1  0
 10 32  1  0
 10 33  1  0
 11 34  1  0
 12 35  1  0
 14 36  1  0
 15 37  1  0
 16 38  1  0
 18 39  1  0
 19 40  1  0
 19 41  1  0
 20 42  1  0
 20 43  1  0
M  END
>  <Energy>  (1139) 
69.237004179676688

>  <compound_id>  (1139) 
13963

>  <target_id>  (1139) 
1

>  <reference_id>  (1139) 
9

>  <inspiration_ids>  (1139) 
[9, 48]

>  <energy_score>  (1139) 
-10.412275400832485

>  <distance_score>  (1139) 
2.1167239811819663

>  <path>  (1139) 
/opt/xchem-fragalysis-2/maxwin/BulkDock/SCRATCH/511014/C13963-P9/C13963-P9.minimised.mol

>  <scratch_subdir>  (1139) 
/opt/xchem-fragalysis-2/maxwin/BulkDock/SCRATCH/511014/C13963-P9

>  <fragmenstein_runtime>  (1139) 
1.8094956874847412

>  <fragmenstein_outcome>  (1139) 
too moved

>  <fragmenstein_mode>  (1139) 
expansion

>  <fragmenstein_error>  (1139) 


$$$$
C13963-P48
     RDKit          3D

 43 44  0  0  0  0  0  0  0  0999 V2000
  -10.4441  -24.0682   12.6755 C   0  0  0  0  0  0  0  0  0  0  0  0
  -11.0736  -24.8845   13.8037 C   0  0  0  0  0  0  0  0  0  0  0  0
  -10.5033  -26.3029   13.8387 C   0  0  0  0  0  0  0  0  0  0  0  0
  -11.3030  -27.2540   14.7289 C   0  0  0  0  0  0  0  0  0  0  0  0
  -12.7058  -27.1829   14.3533 N   0  0  0  0  0  0  0  0  0  0  0  0
  -13.4987  -28.3708   14.6920 C   0  0  0  0  0  0  0  0  0  0  0  0
  -13.2842  -29.4261   13.5587 C   0  0  0  0  0  0  0  0  0  0  0  0
  -13.2861  -30.5834   13.7165 O   0  0  0  0  0  0  0  0  0  0  0  0
  -13.0348  -28.5856   12.2763 N   0  0  0  0  0  0  0  0  0  0  0  0
  -12.6476  -28.9908   10.9631 C   0  0  0  0  0  0  0  0  0  0  0  0
  -11.3293  -28.3005   10.7876 C   0  0  0  0  0  0  0  0  0  0  0  0
  -11.0487  -27.1718   10.1155 C   0  0  0  0  0  0  0  0  0  0  0  0
  -11.9297  -26.4680    9.1915 C   0  0  0  0  0  0  0  0  0  0  0  0
  -12.0879  -26.9730    7.9027 C   0  0  0  0  0  0  0  0  0  0  0  0
  -12.8293  -26.2583    6.9696 C   0  0  0  0  0  0  0  0  0  0  0  0
  -13.3958  -25.0567    7.3613 C   0  0  0  0  0  0  0  0  0  0  0  0
  -13.2835  -24.5401    8.6042 N   0  0  0  0  0  0  0  0  0  0  0  0
  -12.5486  -25.2589    9.4870 C   0  0  0  0  0  0  0  0  0  0  0  0
  -13.2742  -25.8877   14.6313 C   0  0  0  0  0  0  0  0  0  0  0  0
  -12.5979  -24.9074   13.6665 C   0  0  0  0  0  0  0  0  0  0  0  0
  -10.5984  -24.5353   11.7011 H   0  0  0  0  0  0  0  0  0  0  0  0
   -9.3658  -23.9740   12.8236 H   0  0  0  0  0  0  0  0  0  0  0  0
  -10.8651  -23.0581   12.6435 H   0  0  0  0  0  0  0  0  0  0  0  0
  -10.8137  -24.4047   14.7526 H   0  0  0  0  0  0  0  0  0  0  0  0
  -10.4671  -26.7079   12.8258 H   0  0  0  0  0  0  0  0  0  0  0  0
   -9.4651  -26.2751   14.1879 H   0  0  0  0  0  0  0  0  0  0  0  0
  -11.1630  -27.0050   15.7884 H   0  0  0  0  0  0  0  0  0  0  0  0
  -10.9025  -28.2649   14.5845 H   0  0  0  0  0  0  0  0  0  0  0  0
  -13.2085  -28.7953   15.6586 H   0  0  0  0  0  0  0  0  0  0  0  0
  -14.5727  -28.1538   14.7083 H   0  0  0  0  0  0  0  0  0  0  0  0
  -13.1904  -27.6013   12.4794 H   0  0  0  0  0  0  0  0  0  0  0  0
  -12.5428  -30.0773   10.9155 H   0  0  0  0  0  0  0  0  0  0  0  0
  -13.4101  -28.6559   10.2564 H   0  0  0  0  0  0  0  0  0  0  0  0
  -10.5197  -28.7445   11.3676 H   0  0  0  0  0  0  0  0  0  0  0  0
  -10.0362  -26.7721   10.1589 H   0  0  0  0  0  0  0  0  0  0  0  0
  -11.6116  -27.9048    7.6080 H   0  0  0  0  0  0  0  0  0  0  0  0
  -12.9520  -26.6223    5.9557 H   0  0  0  0  0  0  0  0  0  0  0  0
  -13.9765  -24.4608    6.6628 H   0  0  0  0  0  0  0  0  0  0  0  0
  -12.4619  -24.8053   10.4661 H   0  0  0  0  0  0  0  0  0  0  0  0
  -13.1440  -25.6049   15.6806 H   0  0  0  0  0  0  0  0  0  0  0  0
  -14.3500  -25.8749   14.4205 H   0  0  0  0  0  0  0  0  0  0  0  0
  -12.8682  -25.1930   12.6424 H   0  0  0  0  0  0  0  0  0  0  0  0
  -13.0118  -23.9042   13.8072 H   0  0  0  0  0  0  0  0  0  0  0  0
  1  2  1  0
  2  3  1  0
  3  4  1  0
  4  5  1  0
  5  6  1  0
  6  7  1  0
  7  8  2  0
  7  9  1  0
  9 10  1  0
 10 11  1  0
 11 12  2  3
 12 13  1  0
 13 14  2  0
 14 15  1  0
 15 16  2  0
 16 17  1  0
 17 18  2  0
  5 19  1  0
 19 20  1  0
 20  2  1  0
 18 13  1  0
  1 21  1  0
  1 22  1  0
  1 23  1  0
  2 24  1  0
  3 25  1  0
  3 26  1  0
  4 27  1  0
  4 28  1  0
  6 29  1  0
  6 30  1  0
  9 31  1  0
 10 32  1  0
 10 33  1  0
 11 34  1  0
 12 35  1  0
 14 36  1  0
 15 37  1  0
 16 38  1  0
 18 39  1  0
 19 40  1  0
 19 41  1  0
 20 42  1  0
 20 43  1  0
M  END
>  <Energy>  (1140) 
63.419323597768908

>  <compound_id>  (1140) 
13963

>  <target_id>  (1140) 
1

>  <reference_id>  (1140) 
48

>  <inspiration_ids>  (1140) 
[9, 48]

>  <energy_score>  (1140) 
-16.229955982740137

>  <distance_score>  (1140) 
2.3825293053458254

>  <path>  (1140) 
/opt/xchem-fragalysis-2/maxwin/BulkDock/SCRATCH/511014/C13963-P48/C13963-P48.minimised.mol

>  <scratch_subdir>  (1140) 
/opt/xchem-fragalysis-2/maxwin/BulkDock/SCRATCH/511014/C13963-P48

>  <fragmenstein_runtime>  (1140) 
2.1195528507232666

>  <fragmenstein_outcome>  (1140) 
too moved

>  <fragmenstein_mode>  (1140) 
expansion

>  <fragmenstein_error>  (1140) 


$$$$
C13964-P9
     RDKit          3D

 43 44  0  0  0  0  0  0  0  0999 V2000
  -17.1802  -25.7870   15.3989 C   0  0  0  0  0  0  0  0  0  0  0  0
  -16.8004  -25.7676   16.6838 C   0  0  0  0  0  0  0  0  0  0  0  0
  -16.0696  -26.8870   17.3789 C   0  0  0  0  0  0  0  0  0  0  0  0
  -16.8872  -27.4319   18.5442 C   0  0  0  0  0  0  0  0  0  0  0  0
  -14.8416  -26.3699   17.9128 O   0  0  0  0  0  0  0  0  0  0  0  0
  -13.8912  -26.3237   16.9025 N   0  0  0  0  0  0  0  0  0  0  0  0
  -12.5677  -27.0789   16.7490 C   0  0  0  0  0  0  0  0  0  0  0  0
  -12.1081  -27.8995   17.3922 O   0  0  0  0  0  0  0  0  0  0  0  0
  -12.0452  -26.4138   15.4791 N   0  0  0  0  0  0  0  0  0  0  0  0
  -12.5187  -27.1567   14.2346 C   0  0  0  0  0  0  0  0  0  0  0  0
  -12.6743  -26.3008   12.9742 C   0  0  0  0  0  0  0  0  0  0  0  0
  -11.2948  -25.9720   12.4361 C   0  0  0  0  0  0  0  0  0  0  0  0
  -11.3452  -24.8834   11.4534 N   0  0  0  0  0  0  0  0  0  0  0  0
  -11.8704  -25.2396   10.1931 C   0  0  0  0  0  0  0  0  0  0  0  0
  -11.2879  -26.2255    9.3936 C   0  0  0  0  0  0  0  0  0  0  0  0
  -11.7863  -26.4818    8.1144 C   0  0  0  0  0  0  0  0  0  0  0  0
  -12.8696  -25.7449    7.6678 C   0  0  0  0  0  0  0  0  0  0  0  0
  -13.4896  -24.8067    8.4115 N   0  0  0  0  0  0  0  0  0  0  0  0
  -12.9740  -24.5823    9.6436 C   0  0  0  0  0  0  0  0  0  0  0  0
  -10.4503  -25.5768   13.6306 C   0  0  0  0  0  0  0  0  0  0  0  0
  -10.7228  -26.5742   14.7611 C   0  0  0  0  0  0  0  0  0  0  0  0
  -17.7094  -24.9413   14.9680 H   0  0  0  0  0  0  0  0  0  0  0  0
  -16.9889  -26.6399   14.7555 H   0  0  0  0  0  0  0  0  0  0  0  0
  -17.0252  -24.8876   17.2856 H   0  0  0  0  0  0  0  0  0  0  0  0
  -15.8556  -27.7163   16.6912 H   0  0  0  0  0  0  0  0  0  0  0  0
  -17.1010  -26.6526   19.2842 H   0  0  0  0  0  0  0  0  0  0  0  0
  -16.3255  -28.2131   19.0685 H   0  0  0  0  0  0  0  0  0  0  0  0
  -17.8370  -27.8561   18.2026 H   0  0  0  0  0  0  0  0  0  0  0  0
  -14.0286  -25.7141   16.1058 H   0  0  0  0  0  0  0  0  0  0  0  0
  -13.5587  -27.4212   14.4873 H   0  0  0  0  0  0  0  0  0  0  0  0
  -12.1036  -28.1680   14.0757 H   0  0  0  0  0  0  0  0  0  0  0  0
  -13.2589  -26.8451   12.2233 H   0  0  0  0  0  0  0  0  0  0  0  0
  -13.2339  -25.3875   13.2159 H   0  0  0  0  0  0  0  0  0  0  0  0
  -10.8488  -26.8753   11.9996 H   0  0  0  0  0  0  0  0  0  0  0  0
  -11.8184  -24.0651   11.8370 H   0  0  0  0  0  0  0  0  0  0  0  0
  -10.4028  -26.7579    9.7295 H   0  0  0  0  0  0  0  0  0  0  0  0
  -11.3172  -27.2190    7.4725 H   0  0  0  0  0  0  0  0  0  0  0  0
  -13.2787  -25.8967    6.6732 H   0  0  0  0  0  0  0  0  0  0  0  0
  -13.5074  -23.8237   10.2059 H   0  0  0  0  0  0  0  0  0  0  0  0
  -10.6808  -24.5574   13.9637 H   0  0  0  0  0  0  0  0  0  0  0  0
   -9.3914  -25.5928   13.3539 H   0  0  0  0  0  0  0  0  0  0  0  0
  -10.3722  -27.6065   14.5857 H   0  0  0  0  0  0  0  0  0  0  0  0
  -10.0214  -26.2792   15.5564 H   0  0  0  0  0  0  0  0  0  0  0  0
  1  2  2  0
  2  3  1  0
  3  4  1  0
  3  5  1  0
  5  6  1  0
  6  7  1  0
  7  8  2  0
  7  9  1  0
  9 10  1  0
 10 11  1  0
 11 12  1  0
 12 13  1  0
 13 14  1  0
 14 15  2  0
 15 16  1  0
 16 17  2  0
 17 18  1  0
 18 19  2  0
 12 20  1  0
 20 21  1  0
 21  9  1  0
 19 14  1  0
  1 22  1  0
  1 23  1  0
  2 24  1  0
  3 25  1  0
  4 26  1  0
  4 27  1  0
  4 28  1  0
  6 29  1  0
 10 30  1  0
 10 31  1  0
 11 32  1  0
 11 33  1  0
 12 34  1  0
 13 35  1  0
 15 36  1  0
 16 37  1  0
 17 38  1  0
 19 39  1  0
 20 40  1  0
 20 41  1  0
 21 42  1  0
 21 43  1  0
M  END
>  <Energy>  (1141) 
116.43111604496703

>  <compound_id>  (1141) 
13964

>  <target_id>  (1141) 
1

>  <reference_id>  (1141) 
9

>  <inspiration_ids>  (1141) 
[9, 48]

>  <energy_score>  (1141) 
38.39755042645814

>  <distance_score>  (1141) 
1.2317303500643222

>  <path>  (1141) 
/opt/xchem-fragalysis-2/maxwin/BulkDock/SCRATCH/511014/C13964-P9/C13964-P9.minimised.mol

>  <scratch_subdir>  (1141) 
/opt/xchem-fragalysis-2/maxwin/BulkDock/SCRATCH/511014/C13964-P9

>  <fragmenstein_runtime>  (1141) 
7.35465407371521

>  <fragmenstein_outcome>  (1141) 
too moved

>  <fragmenstein_mode>  (1141) 
expansion

>  <fragmenstein_error>  (1141) 


$$$$
C13964-P48
     RDKit          3D

 43 44  0  0  0  0  0  0  0  0999 V2000
  -15.7202  -31.7279   13.3538 C   0  0  0  0  0  0  0  0  0  0  0  0
  -14.7378  -32.6273   13.5082 C   0  0  0  0  0  0  0  0  0  0  0  0
  -13.7607  -32.7209   14.6592 C   0  0  0  0  0  0  0  0  0  0  0  0
  -14.0463  -33.9608   15.4992 C   0  0  0  0  0  0  0  0  0  0  0  0
  -13.8533  -31.5839   15.5308 O   0  0  0  0  0  0  0  0  0  0  0  0
  -13.0450  -30.5637   15.0450 N   0  0  0  0  0  0  0  0  0  0  0  0
  -11.6302  -30.3254   15.1992 C   0  0  0  0  0  0  0  0  0  0  0  0
  -10.7964  -30.9791   15.7103 O   0  0  0  0  0  0  0  0  0  0  0  0
  -11.5442  -29.0004   14.5719 N   0  0  0  0  0  0  0  0  0  0  0  0
  -11.2453  -29.1462   13.0853 C   0  0  0  0  0  0  0  0  0  0  0  0
  -11.8018  -28.0186   12.2154 C   0  0  0  0  0  0  0  0  0  0  0  0
  -10.9613  -26.7700   12.4184 C   0  0  0  0  0  0  0  0  0  0  0  0
  -11.6354  -25.5726   11.9090 N   0  0  0  0  0  0  0  0  0  0  0  0
  -11.9679  -25.4902   10.5502 C   0  0  0  0  0  0  0  0  0  0  0  0
  -11.1958  -26.0407    9.5264 C   0  0  0  0  0  0  0  0  0  0  0  0
  -11.5522  -25.8515    8.1894 C   0  0  0  0  0  0  0  0  0  0  0  0
  -12.6697  -25.0873    7.9038 C   0  0  0  0  0  0  0  0  0  0  0  0
  -13.4417  -24.5166    8.8498 N   0  0  0  0  0  0  0  0  0  0  0  0
  -13.0626  -24.7245   10.1347 C   0  0  0  0  0  0  0  0  0  0  0  0
  -10.7270  -26.6434   13.9170 C   0  0  0  0  0  0  0  0  0  0  0  0
  -10.3905  -28.0252   14.4911 C   0  0  0  0  0  0  0  0  0  0  0  0
  -15.9132  -30.9585   14.0946 H   0  0  0  0  0  0  0  0  0  0  0  0
  -16.3689  -31.7578   12.4836 H   0  0  0  0  0  0  0  0  0  0  0  0
  -14.6116  -33.3839   12.7357 H   0  0  0  0  0  0  0  0  0  0  0  0
  -12.7428  -32.8054   14.2562 H   0  0  0  0  0  0  0  0  0  0  0  0
  -15.0440  -33.9123   15.9510 H   0  0  0  0  0  0  0  0  0  0  0  0
  -13.3315  -34.0312   16.3266 H   0  0  0  0  0  0  0  0  0  0  0  0
  -13.9776  -34.8766   14.9032 H   0  0  0  0  0  0  0  0  0  0  0  0
  -13.4745  -29.7488   14.6261 H   0  0  0  0  0  0  0  0  0  0  0  0
  -11.8382  -30.0240   12.7802 H   0  0  0  0  0  0  0  0  0  0  0  0
  -10.2307  -29.4916   12.8212 H   0  0  0  0  0  0  0  0  0  0  0  0
  -11.7876  -28.3302   11.1650 H   0  0  0  0  0  0  0  0  0  0  0  0
  -12.8517  -27.8333   12.4785 H   0  0  0  0  0  0  0  0  0  0  0  0
   -9.9836  -26.8919   11.9354 H   0  0  0  0  0  0  0  0  0  0  0  0
  -12.4139  -25.2830   12.4990 H   0  0  0  0  0  0  0  0  0  0  0  0
  -10.2893  -26.5976    9.7394 H   0  0  0  0  0  0  0  0  0  0  0  0
  -10.9466  -26.2620    7.3890 H   0  0  0  0  0  0  0  0  0  0  0  0
  -12.9715  -24.8996    6.8777 H   0  0  0  0  0  0  0  0  0  0  0  0
  -13.6982  -24.2309   10.8647 H   0  0  0  0  0  0  0  0  0  0  0  0
  -11.6171  -26.2467   14.4230 H   0  0  0  0  0  0  0  0  0  0  0  0
   -9.9106  -25.9390   14.1141 H   0  0  0  0  0  0  0  0  0  0  0  0
   -9.4172  -28.4441   14.1847 H   0  0  0  0  0  0  0  0  0  0  0  0
  -10.1967  -27.8389   15.5597 H   0  0  0  0  0  0  0  0  0  0  0  0
  1  2  2  0
  2  3  1  0
  3  4  1  0
  3  5  1  0
  5  6  1  0
  6  7  1  0
  7  8  2  0
  7  9  1  0
  9 10  1  0
 10 11  1  0
 11 12  1  0
 12 13  1  0
 13 14  1  0
 14 15  2  0
 15 16  1  0
 16 17  2  0
 17 18  1  0
 18 19  2  0
 12 20  1  0
 20 21  1  0
 21  9  1  0
 19 14  1  0
  1 22  1  0
  1 23  1  0
  2 24  1  0
  3 25  1  0
  4 26  1  0
  4 27  1  0
  4 28  1  0
  6 29  1  0
 10 30  1  0
 10 31  1  0
 11 32  1  0
 11 33  1  0
 12 34  1  0
 13 35  1  0
 15 36  1  0
 16 37  1  0
 17 38  1  0
 19 39  1  0
 20 40  1  0
 20 41  1  0
 21 42  1  0
 21 43  1  0
M  END
>  <Energy>  (1142) 
96.899489919541708

>  <compound_id>  (1142) 
13964

>  <target_id>  (1142) 
1

>  <reference_id>  (1142) 
48

>  <inspiration_ids>  (1142) 
[9, 48]

>  <energy_score>  (1142) 
39.28900652981905

>  <distance_score>  (1142) 
2.926449529898476

>  <path>  (1142) 
/opt/xchem-fragalysis-2/maxwin/BulkDock/SCRATCH/511014/C13964-P48/C13964-P48.minimised.mol

>  <scratch_subdir>  (1142) 
/opt/xchem-fragalysis-2/maxwin/BulkDock/SCRATCH/511014/C13964-P48

>  <fragmenstein_runtime>  (1142) 
7.962093114852905

>  <fragmenstein_outcome>  (1142) 
too moved

>  <fragmenstein_mode>  (1142) 
expansion

>  <fragmenstein_error>  (1142) 


$$$$
C13965-P9
     RDKit          3D

 46 48  0  0  0  0  0  0  0  0999 V2000
  -14.9075  -30.0135    9.4981 O   0  0  0  0  0  0  0  0  0  0  0  0
  -14.7832  -28.9401    9.9425 C   0  0  0  0  0  0  0  0  0  0  0  0
  -15.6946  -27.8080    9.5789 C   0  0  0  0  0  0  0  0  0  0  0  0
  -16.6194  -27.9783    8.6215 C   0  0  0  0  0  0  0  0  0  0  0  0
  -17.5517  -26.9274    8.1923 C   0  0  0  0  0  0  0  0  0  0  0  0
  -17.1742  -25.5804    8.0989 C   0  0  0  0  0  0  0  0  0  0  0  0
  -18.0852  -24.6163    7.6594 C   0  0  0  0  0  0  0  0  0  0  0  0
  -19.3784  -24.9897    7.2998 C   0  0  0  0  0  0  0  0  0  0  0  0
  -19.7602  -26.3274    7.3728 C   0  0  0  0  0  0  0  0  0  0  0  0
  -18.8495  -27.2919    7.8110 C   0  0  0  0  0  0  0  0  0  0  0  0
  -13.7350  -28.3370   10.9167 N   0  0  0  0  0  0  0  0  0  0  0  0
  -12.3896  -28.9270   11.5753 C   0  0  0  0  0  0  0  0  0  0  0  0
  -11.7351  -30.3396   11.5435 S   0  0  0  0  0  0  0  0  0  0  0  0
  -11.8409  -27.8134   12.2727 N   0  0  0  0  0  0  0  0  0  0  0  0
  -12.2237  -27.5862   13.6612 C   0  0  0  0  0  0  0  0  0  0  0  0
  -12.3632  -26.1089   13.9778 C   0  0  0  0  0  0  0  0  0  0  0  0
  -11.0864  -25.3259   13.6723 C   0  0  0  0  0  0  0  0  0  0  0  0
  -10.1827  -25.9806   12.6251 C   0  0  0  0  0  0  0  0  0  0  0  0
  -10.8960  -26.8947   11.6125 C   0  0  0  0  0  0  0  0  0  0  0  0
  -11.5182  -26.1754   10.4273 C   0  0  0  0  0  0  0  0  0  0  0  0
  -11.2957  -26.6570    9.1283 C   0  0  0  0  0  0  0  0  0  0  0  0
  -11.8982  -26.0432    8.0340 C   0  0  0  0  0  0  0  0  0  0  0  0
  -12.7252  -24.9613    8.2660 C   0  0  0  0  0  0  0  0  0  0  0  0
  -12.9874  -24.4741    9.4981 N   0  0  0  0  0  0  0  0  0  0  0  0
  -12.3691  -25.0811   10.5398 C   0  0  0  0  0  0  0  0  0  0  0  0
  -15.5943  -26.8656   10.1004 H   0  0  0  0  0  0  0  0  0  0  0  0
  -16.7229  -28.9414    8.1239 H   0  0  0  0  0  0  0  0  0  0  0  0
  -16.1654  -25.2645    8.3539 H   0  0  0  0  0  0  0  0  0  0  0  0
  -17.7821  -23.5746    7.5914 H   0  0  0  0  0  0  0  0  0  0  0  0
  -20.0862  -24.2397    6.9562 H   0  0  0  0  0  0  0  0  0  0  0  0
  -20.7662  -26.6228    7.0863 H   0  0  0  0  0  0  0  0  0  0  0  0
  -19.1661  -28.3319    7.8589 H   0  0  0  0  0  0  0  0  0  0  0  0
  -13.8198  -27.3439   11.0642 H   0  0  0  0  0  0  0  0  0  0  0  0
  -11.4450  -28.0362   14.2888 H   0  0  0  0  0  0  0  0  0  0  0  0
  -13.1587  -28.1173   13.8729 H   0  0  0  0  0  0  0  0  0  0  0  0
  -12.6335  -25.9751   15.0314 H   0  0  0  0  0  0  0  0  0  0  0  0
  -13.1950  -25.6957   13.3962 H   0  0  0  0  0  0  0  0  0  0  0  0
  -10.5055  -25.2079   14.5958 H   0  0  0  0  0  0  0  0  0  0  0  0
  -11.3498  -24.3080   13.3634 H   0  0  0  0  0  0  0  0  0  0  0  0
   -9.4632  -26.6044   13.1748 H   0  0  0  0  0  0  0  0  0  0  0  0
   -9.5841  -25.2154   12.1157 H   0  0  0  0  0  0  0  0  0  0  0  0
  -10.1083  -27.5395   11.1973 H   0  0  0  0  0  0  0  0  0  0  0  0
  -10.6547  -27.5208    8.9579 H   0  0  0  0  0  0  0  0  0  0  0  0
  -11.7217  -26.4006    7.0252 H   0  0  0  0  0  0  0  0  0  0  0  0
  -13.2105  -24.4438    7.4434 H   0  0  0  0  0  0  0  0  0  0  0  0
  -12.6136  -24.6363   11.4969 H   0  0  0  0  0  0  0  0  0  0  0  0
  1  2  2  0
  2  3  1  0
  3  4  2  3
  4  5  1  0
  5  6  2  0
  6  7  1  0
  7  8  2  0
  8  9  1  0
  9 10  2  0
  2 11  1  0
 11 12  1  0
 12 13  2  0
 12 14  1  0
 14 15  1  0
 15 16  1  0
 16 17  1  0
 17 18  1  0
 18 19  1  0
 19 20  1  0
 20 21  2  0
 21 22  1  0
 22 23  2  0
 23 24  1  0
 24 25  2  0
 10  5  1  0
 19 14  1  0
 25 20  1  0
  3 26  1  0
  4 27  1  0
  6 28  1  0
  7 29  1  0
  8 30  1  0
  9 31  1  0
 10 32  1  0
 11 33  1  0
 15 34  1  0
 15 35  1  0
 16 36  1  0
 16 37  1  0
 17 38  1  0
 17 39  1  0
 18 40  1  0
 18 41  1  0
 19 42  1  0
 21 43  1  0
 22 44  1  0
 23 45  1  0
 25 46  1  0
M  END
>  <Energy>  (1143) 
29.196356775173932

>  <compound_id>  (1143) 
13965

>  <target_id>  (1143) 
1

>  <reference_id>  (1143) 
9

>  <inspiration_ids>  (1143) 
[9, 48]

>  <energy_score>  (1143) 
-36.18487507678106

>  <distance_score>  (1143) 
3.350975793234255

>  <path>  (1143) 
/opt/xchem-fragalysis-2/maxwin/BulkDock/SCRATCH/511014/C13965-P9/C13965-P9.minimised.mol

>  <scratch_subdir>  (1143) 
/opt/xchem-fragalysis-2/maxwin/BulkDock/SCRATCH/511014/C13965-P9

>  <fragmenstein_runtime>  (1143) 
6.580752849578857

>  <fragmenstein_outcome>  (1143) 
too moved

>  <fragmenstein_mode>  (1143) 
expansion

>  <fragmenstein_error>  (1143) 


$$$$
C13965-P48
     RDKit          3D

 46 48  0  0  0  0  0  0  0  0999 V2000
  -15.4329  -30.2986   13.7026 O   0  0  0  0  0  0  0  0  0  0  0  0
  -14.8496  -29.4078   14.1842 C   0  0  0  0  0  0  0  0  0  0  0  0
  -15.1352  -28.9416   15.5818 C   0  0  0  0  0  0  0  0  0  0  0  0
  -16.0158  -29.6328   16.3239 C   0  0  0  0  0  0  0  0  0  0  0  0
  -16.4229  -29.2838   17.6913 C   0  0  0  0  0  0  0  0  0  0  0  0
  -16.6206  -27.9597   18.1024 C   0  0  0  0  0  0  0  0  0  0  0  0
  -17.0814  -27.6791   19.3920 C   0  0  0  0  0  0  0  0  0  0  0  0
  -17.3515  -28.7166   20.2816 C   0  0  0  0  0  0  0  0  0  0  0  0
  -17.1641  -30.0374   19.8825 C   0  0  0  0  0  0  0  0  0  0  0  0
  -16.7081  -30.3190   18.5923 C   0  0  0  0  0  0  0  0  0  0  0  0
  -13.7346  -28.4787   13.6297 N   0  0  0  0  0  0  0  0  0  0  0  0
  -12.9022  -28.4715   12.2430 C   0  0  0  0  0  0  0  0  0  0  0  0
  -13.0092  -29.3307   10.9495 S   0  0  0  0  0  0  0  0  0  0  0  0
  -11.9687  -27.4152   12.4424 N   0  0  0  0  0  0  0  0  0  0  0  0
  -10.6645  -27.7048   13.0227 C   0  0  0  0  0  0  0  0  0  0  0  0
  -10.4498  -26.8846   14.2910 C   0  0  0  0  0  0  0  0  0  0  0  0
  -11.0032  -25.4603   14.1910 C   0  0  0  0  0  0  0  0  0  0  0  0
  -11.2907  -25.0421   12.7531 C   0  0  0  0  0  0  0  0  0  0  0  0
  -12.2772  -26.0204   12.0790 C   0  0  0  0  0  0  0  0  0  0  0  0
  -12.3321  -25.7386   10.5935 C   0  0  0  0  0  0  0  0  0  0  0  0
  -11.4066  -26.2464    9.6772 C   0  0  0  0  0  0  0  0  0  0  0  0
  -11.4924  -25.8904    8.3334 C   0  0  0  0  0  0  0  0  0  0  0  0
  -12.4897  -25.0116    7.9466 C   0  0  0  0  0  0  0  0  0  0  0  0
  -13.3965  -24.4860    8.7978 N   0  0  0  0  0  0  0  0  0  0  0  0
  -13.3024  -24.8722   10.0903 C   0  0  0  0  0  0  0  0  0  0  0  0
  -14.6434  -28.0571   15.9606 H   0  0  0  0  0  0  0  0  0  0  0  0
  -16.4850  -30.5284   15.9161 H   0  0  0  0  0  0  0  0  0  0  0  0
  -16.4487  -27.1312   17.4199 H   0  0  0  0  0  0  0  0  0  0  0  0
  -17.2456  -26.6488   19.6956 H   0  0  0  0  0  0  0  0  0  0  0  0
  -17.7174  -28.4957   21.2807 H   0  0  0  0  0  0  0  0  0  0  0  0
  -17.3834  -30.8508   20.5691 H   0  0  0  0  0  0  0  0  0  0  0  0
  -16.5832  -31.3580   18.2938 H   0  0  0  0  0  0  0  0  0  0  0  0
  -13.3449  -27.8396   14.3045 H   0  0  0  0  0  0  0  0  0  0  0  0
  -10.5779  -28.7742   13.2451 H   0  0  0  0  0  0  0  0  0  0  0  0
   -9.9020  -27.4624   12.2741 H   0  0  0  0  0  0  0  0  0  0  0  0
   -9.3788  -26.8586   14.5225 H   0  0  0  0  0  0  0  0  0  0  0  0
  -10.9313  -27.3846   15.1410 H   0  0  0  0  0  0  0  0  0  0  0  0
  -10.3048  -24.7558   14.6550 H   0  0  0  0  0  0  0  0  0  0  0  0
  -11.9344  -25.4062   14.7675 H   0  0  0  0  0  0  0  0  0  0  0  0
  -11.6998  -24.0242   12.7339 H   0  0  0  0  0  0  0  0  0  0  0  0
  -10.3413  -25.0026   12.2020 H   0  0  0  0  0  0  0  0  0  0  0  0
  -13.2801  -25.8423   12.4912 H   0  0  0  0  0  0  0  0  0  0  0  0
  -10.6201  -26.9251    9.9951 H   0  0  0  0  0  0  0  0  0  0  0  0
  -10.7849  -26.2748    7.6070 H   0  0  0  0  0  0  0  0  0  0  0  0
  -12.5815  -24.6942    6.9120 H   0  0  0  0  0  0  0  0  0  0  0  0
  -14.0560  -24.4332   10.7393 H   0  0  0  0  0  0  0  0  0  0  0  0
  1  2  2  0
  2  3  1  0
  3  4  2  3
  4  5  1  0
  5  6  2  0
  6  7  1  0
  7  8  2  0
  8  9  1  0
  9 10  2  0
  2 11  1  0
 11 12  1  0
 12 13  2  0
 12 14  1  0
 14 15  1  0
 15 16  1  0
 16 17  1  0
 17 18  1  0
 18 19  1  0
 19 20  1  0
 20 21  2  0
 21 22  1  0
 22 23  2  0
 23 24  1  0
 24 25  2  0
 10  5  1  0
 19 14  1  0
 25 20  1  0
  3 26  1  0
  4 27  1  0
  6 28  1  0
  7 29  1  0
  8 30  1  0
  9 31  1  0
 10 32  1  0
 11 33  1  0
 15 34  1  0
 15 35  1  0
 16 36  1  0
 16 37  1  0
 17 38  1  0
 17 39  1  0
 18 40  1  0
 18 41  1  0
 19 42  1  0
 21 43  1  0
 22 44  1  0
 23 45  1  0
 25 46  1  0
M  END
>  <Energy>  (1144) 
34.690868354603175

>  <compound_id>  (1144) 
13965

>  <target_id>  (1144) 
1

>  <reference_id>  (1144) 
48

>  <inspiration_ids>  (1144) 
[9, 48]

>  <energy_score>  (1144) 
-30.690363497351598

>  <distance_score>  (1144) 
3.026695484671987

>  <path>  (1144) 
/opt/xchem-fragalysis-2/maxwin/BulkDock/SCRATCH/511014/C13965-P48/C13965-P48.minimised.mol

>  <scratch_subdir>  (1144) 
/opt/xchem-fragalysis-2/maxwin/BulkDock/SCRATCH/511014/C13965-P48

>  <fragmenstein_runtime>  (1144) 
6.863659858703613

>  <fragmenstein_outcome>  (1144) 
too moved

>  <fragmenstein_mode>  (1144) 
expansion

>  <fragmenstein_error>  (1144) 


$$$$
C13966-P9
     RDKit          3D

 43 45  0  0  0  0  0  0  0  0999 V2000
  -15.0176  -30.6461   13.6807 O   0  0  0  0  0  0  0  0  0  0  0  0
  -14.4238  -29.7578   14.1540 C   0  0  0  0  0  0  0  0  0  0  0  0
  -14.6209  -29.4039   15.5916 C   0  0  0  0  0  0  0  0  0  0  0  0
  -14.9031  -28.2083   16.1324 C   0  0  0  0  0  0  0  0  0  0  0  0
  -15.0952  -26.9918   15.4187 C   0  0  0  0  0  0  0  0  0  0  0  0
  -14.5734  -25.7465   15.7245 C   0  0  0  0  0  0  0  0  0  0  0  0
  -14.9703  -24.7336   14.8043 C   0  0  0  0  0  0  0  0  0  0  0  0
  -15.8324  -25.2162   13.8490 C   0  0  0  0  0  0  0  0  0  0  0  0
  -16.1496  -26.8796   14.0601 S   0  0  0  0  0  0  0  0  0  0  0  0
  -13.3337  -28.8225   13.5808 N   0  0  0  0  0  0  0  0  0  0  0  0
  -12.7000  -28.6537   12.1031 C   0  0  0  0  0  0  0  0  0  0  0  0
  -12.8976  -29.4468   10.7790 S   0  0  0  0  0  0  0  0  0  0  0  0
  -11.7978  -27.5657   12.2829 N   0  0  0  0  0  0  0  0  0  0  0  0
  -10.4348  -27.8220   12.7236 C   0  0  0  0  0  0  0  0  0  0  0  0
  -10.1678  -27.0995   14.0409 C   0  0  0  0  0  0  0  0  0  0  0  0
  -10.8094  -25.7100   14.1094 C   0  0  0  0  0  0  0  0  0  0  0  0
  -11.2315  -25.1894   12.7390 C   0  0  0  0  0  0  0  0  0  0  0  0
  -12.1975  -26.1704   12.0371 C   0  0  0  0  0  0  0  0  0  0  0  0
  -12.3433  -25.7792   10.5829 C   0  0  0  0  0  0  0  0  0  0  0  0
  -11.5014  -26.2399    9.5672 C   0  0  0  0  0  0  0  0  0  0  0  0
  -11.6685  -25.7789    8.2637 C   0  0  0  0  0  0  0  0  0  0  0  0
  -12.6590  -24.8436    8.0168 C   0  0  0  0  0  0  0  0  0  0  0  0
  -13.4855  -24.3579    8.9681 N   0  0  0  0  0  0  0  0  0  0  0  0
  -13.3156  -24.8478   10.2172 C   0  0  0  0  0  0  0  0  0  0  0  0
  -14.5751  -30.2775   16.2365 H   0  0  0  0  0  0  0  0  0  0  0  0
  -14.9987  -28.1502   17.2148 H   0  0  0  0  0  0  0  0  0  0  0  0
  -13.9215  -25.5636   16.5711 H   0  0  0  0  0  0  0  0  0  0  0  0
  -14.6580  -23.6982   14.8594 H   0  0  0  0  0  0  0  0  0  0  0  0
  -16.3077  -24.6706   13.0449 H   0  0  0  0  0  0  0  0  0  0  0  0
  -13.0547  -28.0746   14.1967 H   0  0  0  0  0  0  0  0  0  0  0  0
   -9.7522  -27.4676   11.9434 H   0  0  0  0  0  0  0  0  0  0  0  0
  -10.2698  -28.8985   12.8427 H   0  0  0  0  0  0  0  0  0  0  0  0
   -9.0855  -27.0256   14.1942 H   0  0  0  0  0  0  0  0  0  0  0  0
  -10.5517  -27.6990   14.8760 H   0  0  0  0  0  0  0  0  0  0  0  0
  -11.6918  -25.7627   14.7571 H   0  0  0  0  0  0  0  0  0  0  0  0
  -10.1192  -25.0047   14.5842 H   0  0  0  0  0  0  0  0  0  0  0  0
  -10.3291  -25.0329   12.1321 H   0  0  0  0  0  0  0  0  0  0  0  0
  -11.7056  -24.2054   12.8422 H   0  0  0  0  0  0  0  0  0  0  0  0
  -13.1866  -26.0812   12.5028 H   0  0  0  0  0  0  0  0  0  0  0  0
  -10.7167  -26.9620    9.7743 H   0  0  0  0  0  0  0  0  0  0  0  0
  -11.0258  -26.1257    7.4620 H   0  0  0  0  0  0  0  0  0  0  0  0
  -12.8104  -24.4447    7.0181 H   0  0  0  0  0  0  0  0  0  0  0  0
  -14.0056  -24.4397   10.9517 H   0  0  0  0  0  0  0  0  0  0  0  0
  1  2  2  0
  2  3  1  0
  3  4  2  3
  4  5  1  0
  5  6  2  0
  6  7  1  0
  7  8  2  0
  8  9  1  0
  2 10  1  0
 10 11  1  0
 11 12  2  0
 11 13  1  0
 13 14  1  0
 14 15  1  0
 15 16  1  0
 16 17  1  0
 17 18  1  0
 18 19  1  0
 19 20  2  0
 20 21  1  0
 21 22  2  0
 22 23  1  0
 23 24  2  0
  9  5  1  0
 18 13  1  0
 24 19  1  0
  3 25  1  0
  4 26  1  0
  6 27  1  0
  7 28  1  0
  8 29  1  0
 10 30  1  0
 14 31  1  0
 14 32  1  0
 15 33  1  0
 15 34  1  0
 16 35  1  0
 16 36  1  0
 17 37  1  0
 17 38  1  0
 18 39  1  0
 20 40  1  0
 21 41  1  0
 22 42  1  0
 24 43  1  0
M  END
>  <Energy>  (1145) 
23.659503481816206

>  <compound_id>  (1145) 
13966

>  <target_id>  (1145) 
1

>  <reference_id>  (1145) 
9

>  <inspiration_ids>  (1145) 
[9, 48]

>  <energy_score>  (1145) 
-89.94901846471194

>  <distance_score>  (1145) 
3.1090705248420636

>  <path>  (1145) 
/opt/xchem-fragalysis-2/maxwin/BulkDock/SCRATCH/511014/C13966-P9/C13966-P9.minimised.mol

>  <scratch_subdir>  (1145) 
/opt/xchem-fragalysis-2/maxwin/BulkDock/SCRATCH/511014/C13966-P9

>  <fragmenstein_runtime>  (1145) 
8.924062013626099

>  <fragmenstein_outcome>  (1145) 
too moved

>  <fragmenstein_mode>  (1145) 
expansion

>  <fragmenstein_error>  (1145) 


$$$$
C13966-P48
     RDKit          3D

 43 45  0  0  0  0  0  0  0  0999 V2000
  -14.7365  -23.5123   13.5213 O   0  0  0  0  0  0  0  0  0  0  0  0
  -14.5470  -24.6645   13.5737 C   0  0  0  0  0  0  0  0  0  0  0  0
  -15.6858  -25.5878   13.8585 C   0  0  0  0  0  0  0  0  0  0  0  0
  -15.8321  -26.5867   14.7393 C   0  0  0  0  0  0  0  0  0  0  0  0
  -14.8946  -26.9708   15.7332 C   0  0  0  0  0  0  0  0  0  0  0  0
  -14.0816  -26.2070   16.5505 C   0  0  0  0  0  0  0  0  0  0  0  0
  -13.3051  -26.9909   17.4535 C   0  0  0  0  0  0  0  0  0  0  0  0
  -13.5590  -28.3350   17.3202 C   0  0  0  0  0  0  0  0  0  0  0  0
  -14.7363  -28.6443   16.1235 S   0  0  0  0  0  0  0  0  0  0  0  0
  -13.2872  -25.5167   13.2980 N   0  0  0  0  0  0  0  0  0  0  0  0
  -11.7570  -25.1301   12.9488 C   0  0  0  0  0  0  0  0  0  0  0  0
  -11.0538  -23.7696   12.6680 S   0  0  0  0  0  0  0  0  0  0  0  0
  -11.0855  -26.3705   12.9221 N   0  0  0  0  0  0  0  0  0  0  0  0
  -10.4874  -26.8558   14.1624 C   0  0  0  0  0  0  0  0  0  0  0  0
  -10.9434  -28.2711   14.4744 C   0  0  0  0  0  0  0  0  0  0  0  0
  -10.7172  -29.1959   13.2845 C   0  0  0  0  0  0  0  0  0  0  0  0
  -11.4093  -28.6495   12.0364 C   0  0  0  0  0  0  0  0  0  0  0  0
  -10.9431  -27.2169   11.7210 C   0  0  0  0  0  0  0  0  0  0  0  0
  -11.5730  -26.6924   10.4460 C   0  0  0  0  0  0  0  0  0  0  0  0
  -10.7722  -26.2348    9.3941 C   0  0  0  0  0  0  0  0  0  0  0  0
  -11.3560  -25.7722    8.2163 C   0  0  0  0  0  0  0  0  0  0  0  0
  -12.7344  -25.7738    8.1200 C   0  0  0  0  0  0  0  0  0  0  0  0
  -13.5475  -26.2139    9.1015 N   0  0  0  0  0  0  0  0  0  0  0  0
  -12.9489  -26.6588   10.2322 C   0  0  0  0  0  0  0  0  0  0  0  0
  -16.5338  -25.3520   13.2166 H   0  0  0  0  0  0  0  0  0  0  0  0
  -16.7734  -27.1352   14.7147 H   0  0  0  0  0  0  0  0  0  0  0  0
  -14.0666  -25.1233   16.5237 H   0  0  0  0  0  0  0  0  0  0  0  0
  -12.6080  -26.5878   18.1767 H   0  0  0  0  0  0  0  0  0  0  0  0
  -13.1178  -29.1499   17.8774 H   0  0  0  0  0  0  0  0  0  0  0  0
  -13.3883  -26.4976   13.5104 H   0  0  0  0  0  0  0  0  0  0  0  0
   -9.3994  -26.8250   14.0330 H   0  0  0  0  0  0  0  0  0  0  0  0
  -10.7427  -26.1850   14.9908 H   0  0  0  0  0  0  0  0  0  0  0  0
  -10.4129  -28.6510   15.3538 H   0  0  0  0  0  0  0  0  0  0  0  0
  -12.0102  -28.2634   14.7134 H   0  0  0  0  0  0  0  0  0  0  0  0
   -9.6422  -29.3030   13.0957 H   0  0  0  0  0  0  0  0  0  0  0  0
  -11.1052  -30.1946   13.5140 H   0  0  0  0  0  0  0  0  0  0  0  0
  -11.2041  -29.3122   11.1866 H   0  0  0  0  0  0  0  0  0  0  0  0
  -12.4937  -28.6749   12.2041 H   0  0  0  0  0  0  0  0  0  0  0  0
   -9.8577  -27.2665   11.5522 H   0  0  0  0  0  0  0  0  0  0  0  0
   -9.6877  -26.2208    9.4819 H   0  0  0  0  0  0  0  0  0  0  0  0
  -10.7436  -25.3935    7.4039 H   0  0  0  0  0  0  0  0  0  0  0  0
  -13.2335  -25.4088    7.2274 H   0  0  0  0  0  0  0  0  0  0  0  0
  -13.6481  -27.0054   10.9861 H   0  0  0  0  0  0  0  0  0  0  0  0
  1  2  2  0
  2  3  1  0
  3  4  2  3
  4  5  1  0
  5  6  2  0
  6  7  1  0
  7  8  2  0
  8  9  1  0
  2 10  1  0
 10 11  1  0
 11 12  2  0
 11 13  1  0
 13 14  1  0
 14 15  1  0
 15 16  1  0
 16 17  1  0
 17 18  1  0
 18 19  1  0
 19 20  2  0
 20 21  1  0
 21 22  2  0
 22 23  1  0
 23 24  2  0
  9  5  1  0
 18 13  1  0
 24 19  1  0
  3 25  1  0
  4 26  1  0
  6 27  1  0
  7 28  1  0
  8 29  1  0
 10 30  1  0
 14 31  1  0
 14 32  1  0
 15 33  1  0
 15 34  1  0
 16 35  1  0
 16 36  1  0
 17 37  1  0
 17 38  1  0
 18 39  1  0
 20 40  1  0
 21 41  1  0
 22 42  1  0
 24 43  1  0
M  END
>  <Energy>  (1146) 
21.700670670743648

>  <compound_id>  (1146) 
13966

>  <target_id>  (1146) 
1

>  <reference_id>  (1146) 
48

>  <inspiration_ids>  (1146) 
[9, 48]

>  <energy_score>  (1146) 
-91.9078512757828

>  <distance_score>  (1146) 
3.807621608051818

>  <path>  (1146) 
/opt/xchem-fragalysis-2/maxwin/BulkDock/SCRATCH/511014/C13966-P48/C13966-P48.minimised.mol

>  <scratch_subdir>  (1146) 
/opt/xchem-fragalysis-2/maxwin/BulkDock/SCRATCH/511014/C13966-P48

>  <fragmenstein_runtime>  (1146) 
8.013390302658081

>  <fragmenstein_outcome>  (1146) 
too moved

>  <fragmenstein_mode>  (1146) 
expansion

>  <fragmenstein_error>  (1146) 


$$$$
C13970-P9
     RDKit          3D

 49 50  0  0  0  0  0  0  0  0999 V2000
  -13.6809  -29.0002   18.2643 C   0  0  0  0  0  0  0  0  0  0  0  0
  -13.2042  -28.5323   16.9032 C   0  0  0  0  0  0  0  0  0  0  0  0
  -12.8936  -27.0281   16.9177 C   0  0  0  0  0  0  0  0  0  0  0  0
  -12.3559  -26.4813   15.6676 N   0  0  0  0  0  0  0  0  0  0  0  0
  -13.3227  -26.5099   14.5676 C   0  0  0  0  0  0  0  0  0  0  0  0
  -12.6724  -26.6800   13.1963 C   0  0  0  0  0  0  0  0  0  0  0  0
  -11.4362  -25.7545   13.0758 C   0  0  0  0  0  0  0  0  0  0  0  0
  -10.7481  -25.9307   11.7067 N   0  0  0  0  0  0  0  0  0  0  0  0
  -11.6783  -24.8053   11.3368 C   0  0  0  0  0  0  0  0  0  0  0  0
   -9.4114  -25.6240   11.2832 C   0  0  0  0  0  0  0  0  0  0  0  0
   -8.5142  -25.0674   11.8650 O   0  0  0  0  0  0  0  0  0  0  0  0
   -9.1081  -26.2223    9.8812 C   0  0  0  0  0  0  0  0  0  0  0  0
  -10.0933  -25.9835    8.8602 N   0  0  0  0  0  0  0  0  0  0  0  0
  -11.2363  -26.7384    8.4696 C   0  0  0  0  0  0  0  0  0  0  0  0
  -11.6299  -27.8049    8.8347 O   0  0  0  0  0  0  0  0  0  0  0  0
  -12.0926  -26.0059    7.5141 C   0  0  0  0  0  0  0  0  0  0  0  0
  -11.5947  -25.4103    6.3581 C   0  0  0  0  0  0  0  0  0  0  0  0
  -12.4644  -24.6809    5.5536 C   0  0  0  0  0  0  0  0  0  0  0  0
  -13.7917  -24.5695    5.9432 C   0  0  0  0  0  0  0  0  0  0  0  0
  -14.3006  -25.1370    7.0595 N   0  0  0  0  0  0  0  0  0  0  0  0
  -13.4405  -25.8628    7.8130 C   0  0  0  0  0  0  0  0  0  0  0  0
  -10.4177  -26.2322   14.1623 C   0  0  0  0  0  0  0  0  0  0  0  0
  -11.0493  -27.0267   15.3091 C   0  0  0  0  0  0  0  0  0  0  0  0
  -13.9149  -30.0690   18.2410 H   0  0  0  0  0  0  0  0  0  0  0  0
  -14.5795  -28.4593   18.5769 H   0  0  0  0  0  0  0  0  0  0  0  0
  -12.8988  -28.8407   19.0107 H   0  0  0  0  0  0  0  0  0  0  0  0
  -13.9794  -28.7716   16.1691 H   0  0  0  0  0  0  0  0  0  0  0  0
  -12.3146  -29.1094   16.6321 H   0  0  0  0  0  0  0  0  0  0  0  0
  -13.8020  -26.4718   17.1834 H   0  0  0  0  0  0  0  0  0  0  0  0
  -12.1804  -26.8168   17.7245 H   0  0  0  0  0  0  0  0  0  0  0  0
  -14.0686  -27.3036   14.6723 H   0  0  0  0  0  0  0  0  0  0  0  0
  -13.8787  -25.5645   14.5872 H   0  0  0  0  0  0  0  0  0  0  0  0
  -12.3654  -27.7247   13.0479 H   0  0  0  0  0  0  0  0  0  0  0  0
  -13.4340  -26.5002   12.4314 H   0  0  0  0  0  0  0  0  0  0  0  0
  -11.6564  -24.7225   13.4091 H   0  0  0  0  0  0  0  0  0  0  0  0
  -11.2979  -23.8366   11.6975 H   0  0  0  0  0  0  0  0  0  0  0  0
  -11.6264  -24.6973   10.2521 H   0  0  0  0  0  0  0  0  0  0  0  0
  -12.7553  -24.9285   11.4933 H   0  0  0  0  0  0  0  0  0  0  0  0
   -8.9929  -27.3042   10.0051 H   0  0  0  0  0  0  0  0  0  0  0  0
   -8.1636  -25.8030    9.5205 H   0  0  0  0  0  0  0  0  0  0  0  0
  -10.0288  -25.1514    8.2753 H   0  0  0  0  0  0  0  0  0  0  0  0
  -10.5505  -25.5120    6.0771 H   0  0  0  0  0  0  0  0  0  0  0  0
  -12.1159  -24.2047    4.6433 H   0  0  0  0  0  0  0  0  0  0  0  0
  -14.5031  -24.0052    5.3457 H   0  0  0  0  0  0  0  0  0  0  0  0
  -13.8731  -26.3243    8.6968 H   0  0  0  0  0  0  0  0  0  0  0  0
   -9.9140  -25.3446   14.5655 H   0  0  0  0  0  0  0  0  0  0  0  0
   -9.6292  -26.8568   13.7248 H   0  0  0  0  0  0  0  0  0  0  0  0
  -10.3657  -26.9873   16.1660 H   0  0  0  0  0  0  0  0  0  0  0  0
  -11.1259  -28.0821   15.0193 H   0  0  0  0  0  0  0  0  0  0  0  0
  1  2  1  0
  2  3  1  0
  3  4  1  0
  4  5  1  0
  5  6  1  0
  6  7  1  0
  7  8  1  0
  8  9  1  0
  8 10  1  0
 10 11  2  0
 10 12  1  0
 12 13  1  0
 13 14  1  0
 14 15  2  0
 14 16  1  0
 16 17  2  0
 17 18  1  0
 18 19  2  0
 19 20  1  0
 20 21  2  0
  7 22  1  0
 22 23  1  0
 23  4  1  0
 21 16  1  0
  1 24  1  0
  1 25  1  0
  1 26  1  0
  2 27  1  0
  2 28  1  0
  3 29  1  0
  3 30  1  0
  5 31  1  0
  5 32  1  0
  6 33  1  0
  6 34  1  0
  7 35  1  0
  9 36  1  0
  9 37  1  0
  9 38  1  0
 12 39  1  0
 12 40  1  0
 13 41  1  0
 17 42  1  0
 18 43  1  0
 19 44  1  0
 21 45  1  0
 22 46  1  0
 22 47  1  0
 23 48  1  0
 23 49  1  0
M  END
>  <Energy>  (1147) 
125.55461899450303

>  <compound_id>  (1147) 
13970

>  <target_id>  (1147) 
1

>  <reference_id>  (1147) 
9

>  <inspiration_ids>  (1147) 
[9, 48]

>  <energy_score>  (1147) 
31.3839006275887

>  <distance_score>  (1147) 
1.7017518953423545

>  <path>  (1147) 
/opt/xchem-fragalysis-2/maxwin/BulkDock/SCRATCH/511014/C13970-P9/C13970-P9.minimised.mol

>  <scratch_subdir>  (1147) 
/opt/xchem-fragalysis-2/maxwin/BulkDock/SCRATCH/511014/C13970-P9

>  <fragmenstein_runtime>  (1147) 
7.58423113822937

>  <fragmenstein_outcome>  (1147) 
too moved

>  <fragmenstein_mode>  (1147) 
expansion

>  <fragmenstein_error>  (1147) 


$$$$
C13970-P48
     RDKit          3D

 49 50  0  0  0  0  0  0  0  0999 V2000
  -14.2957  -28.9508   17.8027 C   0  0  0  0  0  0  0  0  0  0  0  0
  -13.5510  -28.3913   16.6017 C   0  0  0  0  0  0  0  0  0  0  0  0
  -12.8536  -27.0718   16.9532 C   0  0  0  0  0  0  0  0  0  0  0  0
  -11.9728  -26.5479   15.9105 N   0  0  0  0  0  0  0  0  0  0  0  0
  -12.6493  -26.1669   14.6764 C   0  0  0  0  0  0  0  0  0  0  0  0
  -11.6560  -25.5224   13.7137 C   0  0  0  0  0  0  0  0  0  0  0  0
  -10.5181  -26.5293   13.3673 C   0  0  0  0  0  0  0  0  0  0  0  0
   -9.9886  -26.6859   11.9543 N   0  0  0  0  0  0  0  0  0  0  0  0
  -11.3584  -27.2719   11.7323 C   0  0  0  0  0  0  0  0  0  0  0  0
   -9.7077  -25.7118   10.9547 C   0  0  0  0  0  0  0  0  0  0  0  0
   -9.9041  -24.5220   10.9429 O   0  0  0  0  0  0  0  0  0  0  0  0
   -9.1562  -26.3864    9.6817 C   0  0  0  0  0  0  0  0  0  0  0  0
  -10.0641  -25.9797    8.6326 N   0  0  0  0  0  0  0  0  0  0  0  0
  -11.1875  -26.6378    8.0647 C   0  0  0  0  0  0  0  0  0  0  0  0
  -11.6281  -27.7330    8.2506 O   0  0  0  0  0  0  0  0  0  0  0  0
  -11.9817  -25.7679    7.1707 C   0  0  0  0  0  0  0  0  0  0  0  0
  -12.4255  -26.2436    5.9412 C   0  0  0  0  0  0  0  0  0  0  0  0
  -13.2437  -25.4309    5.1627 C   0  0  0  0  0  0  0  0  0  0  0  0
  -13.6020  -24.1827    5.6559 C   0  0  0  0  0  0  0  0  0  0  0  0
  -13.2118  -23.7030    6.8580 N   0  0  0  0  0  0  0  0  0  0  0  0
  -12.4116  -24.5138    7.5928 C   0  0  0  0  0  0  0  0  0  0  0  0
  -10.3848  -27.7265   14.3354 C   0  0  0  0  0  0  0  0  0  0  0  0
  -10.7147  -27.2822   15.7592 C   0  0  0  0  0  0  0  0  0  0  0  0
  -13.5944  -29.1886   18.6074 H   0  0  0  0  0  0  0  0  0  0  0  0
  -14.8223  -29.8704   17.5297 H   0  0  0  0  0  0  0  0  0  0  0  0
  -15.0314  -28.2347   18.1822 H   0  0  0  0  0  0  0  0  0  0  0  0
  -14.2654  -28.2377   15.7853 H   0  0  0  0  0  0  0  0  0  0  0  0
  -12.8251  -29.1383   16.2619 H   0  0  0  0  0  0  0  0  0  0  0  0
  -13.6143  -26.3161   17.1886 H   0  0  0  0  0  0  0  0  0  0  0  0
  -12.2755  -27.1918   17.8782 H   0  0  0  0  0  0  0  0  0  0  0  0
  -13.1245  -27.0278   14.1924 H   0  0  0  0  0  0  0  0  0  0  0  0
  -13.4434  -25.4438   14.8954 H   0  0  0  0  0  0  0  0  0  0  0  0
  -12.1770  -25.1183   12.8413 H   0  0  0  0  0  0  0  0  0  0  0  0
  -11.2130  -24.6394   14.1965 H   0  0  0  0  0  0  0  0  0  0  0  0
   -9.6620  -25.9227   13.7170 H   0  0  0  0  0  0  0  0  0  0  0  0
  -12.1100  -26.5249   11.4478 H   0  0  0  0  0  0  0  0  0  0  0  0
  -11.2397  -27.8399   10.7987 H   0  0  0  0  0  0  0  0  0  0  0  0
  -11.7544  -28.0528   12.3862 H   0  0  0  0  0  0  0  0  0  0  0  0
   -9.1438  -27.4760    9.7590 H   0  0  0  0  0  0  0  0  0  0  0  0
   -8.1565  -26.0018    9.4666 H   0  0  0  0  0  0  0  0  0  0  0  0
   -9.9404  -25.0742    8.1723 H   0  0  0  0  0  0  0  0  0  0  0  0
  -12.1455  -27.2363    5.5997 H   0  0  0  0  0  0  0  0  0  0  0  0
  -13.6030  -25.7648    4.1954 H   0  0  0  0  0  0  0  0  0  0  0  0
  -14.2399  -23.5185    5.0784 H   0  0  0  0  0  0  0  0  0  0  0  0
  -12.1417  -24.1195    8.5677 H   0  0  0  0  0  0  0  0  0  0  0  0
   -9.3599  -28.1171   14.2992 H   0  0  0  0  0  0  0  0  0  0  0  0
  -11.0347  -28.5698   14.0835 H   0  0  0  0  0  0  0  0  0  0  0  0
   -9.9055  -26.6352   16.1129 H   0  0  0  0  0  0  0  0  0  0  0  0
  -10.6892  -28.1657   16.4003 H   0  0  0  0  0  0  0  0  0  0  0  0
  1  2  1  0
  2  3  1  0
  3  4  1  0
  4  5  1  0
  5  6  1  0
  6  7  1  0
  7  8  1  0
  8  9  1  0
  8 10  1  0
 10 11  2  0
 10 12  1  0
 12 13  1  0
 13 14  1  0
 14 15  2  0
 14 16  1  0
 16 17  2  0
 17 18  1  0
 18 19  2  0
 19 20  1  0
 20 21  2  0
  7 22  1  0
 22 23  1  0
 23  4  1  0
 21 16  1  0
  1 24  1  0
  1 25  1  0
  1 26  1  0
  2 27  1  0
  2 28  1  0
  3 29  1  0
  3 30  1  0
  5 31  1  0
  5 32  1  0
  6 33  1  0
  6 34  1  0
  7 35  1  0
  9 36  1  0
  9 37  1  0
  9 38  1  0
 12 39  1  0
 12 40  1  0
 13 41  1  0
 17 42  1  0
 18 43  1  0
 19 44  1  0
 21 45  1  0
 22 46  1  0
 22 47  1  0
 23 48  1  0
 23 49  1  0
M  END
>  <Energy>  (1148) 
127.27687275075041

>  <compound_id>  (1148) 
13970

>  <target_id>  (1148) 
1

>  <reference_id>  (1148) 
48

>  <inspiration_ids>  (1148) 
[9, 48]

>  <energy_score>  (1148) 
33.10615438383465

>  <distance_score>  (1148) 
2.0954084959435533

>  <path>  (1148) 
/opt/xchem-fragalysis-2/maxwin/BulkDock/SCRATCH/511014/C13970-P48/C13970-P48.minimised.mol

>  <scratch_subdir>  (1148) 
/opt/xchem-fragalysis-2/maxwin/BulkDock/SCRATCH/511014/C13970-P48

>  <fragmenstein_runtime>  (1148) 
6.166825532913208

>  <fragmenstein_outcome>  (1148) 
too moved

>  <fragmenstein_mode>  (1148) 
expansion

>  <fragmenstein_error>  (1148) 


$$$$
C13973-P9
     RDKit          3D

 55 56  0  0  0  0  0  0  0  0999 V2000
   -8.0328  -29.0564   11.6053 C   0  0  0  0  0  0  0  0  0  0  0  0
   -8.7298  -29.2876   12.9365 C   0  0  0  0  0  0  0  0  0  0  0  0
  -10.2394  -29.3886   12.8078 C   0  0  0  0  0  0  0  0  0  0  0  0
  -10.9022  -29.2292   14.1857 C   0  0  0  0  0  0  0  0  0  0  0  0
  -10.7893  -27.8572   14.8497 N   0  0  0  0  0  0  0  0  0  0  0  0
  -11.8906  -27.6536   15.7496 C   0  0  0  0  0  0  0  0  0  0  0  0
  -11.9968  -27.8992   16.9217 O   0  0  0  0  0  0  0  0  0  0  0  0
  -13.0372  -26.9169   14.9711 C   0  0  0  0  0  0  0  0  0  0  0  0
  -14.0850  -26.3876   15.9486 C   0  0  0  0  0  0  0  0  0  0  0  0
  -12.4703  -25.7735   14.1973 N   0  0  0  0  0  0  0  0  0  0  0  0
  -12.5366  -26.0151   12.7490 C   0  0  0  0  0  0  0  0  0  0  0  0
  -11.7614  -24.9533   11.8453 C   0  0  0  0  0  0  0  0  0  0  0  0
  -10.9361  -23.8795   12.6022 C   0  0  0  0  0  0  0  0  0  0  0  0
  -11.2742  -25.4654   10.4435 N   0  0  0  0  0  0  0  0  0  0  0  0
  -10.1032  -25.8884   11.2387 C   0  0  0  0  0  0  0  0  0  0  0  0
  -12.2984  -26.2304    9.8214 C   0  0  0  0  0  0  0  0  0  0  0  0
  -12.5251  -27.4089    9.8582 O   0  0  0  0  0  0  0  0  0  0  0  0
  -13.1272  -25.4057    8.9244 C   0  0  0  0  0  0  0  0  0  0  0  0
  -12.5473  -24.6356    7.9182 C   0  0  0  0  0  0  0  0  0  0  0  0
  -13.3675  -23.8989    7.0719 C   0  0  0  0  0  0  0  0  0  0  0  0
  -14.7376  -23.9630    7.2693 C   0  0  0  0  0  0  0  0  0  0  0  0
  -15.3269  -24.7064    8.2340 N   0  0  0  0  0  0  0  0  0  0  0  0
  -14.5059  -25.4321    9.0316 C   0  0  0  0  0  0  0  0  0  0  0  0
   -9.3885  -28.3343   15.1085 C   0  0  0  0  0  0  0  0  0  0  0  0
   -8.4261  -28.1903   13.9354 C   0  0  0  0  0  0  0  0  0  0  0  0
   -8.3163  -29.8255   10.8794 H   0  0  0  0  0  0  0  0  0  0  0  0
   -6.9456  -29.1015   11.7324 H   0  0  0  0  0  0  0  0  0  0  0  0
   -8.2691  -28.0824   11.1785 H   0  0  0  0  0  0  0  0  0  0  0  0
   -8.3638  -30.2380   13.3490 H   0  0  0  0  0  0  0  0  0  0  0  0
  -10.5103  -30.3621   12.3813 H   0  0  0  0  0  0  0  0  0  0  0  0
  -10.6257  -28.6351   12.1174 H   0  0  0  0  0  0  0  0  0  0  0  0
  -11.9767  -29.3230   13.9616 H   0  0  0  0  0  0  0  0  0  0  0  0
  -10.7683  -30.0913   14.8629 H   0  0  0  0  0  0  0  0  0  0  0  0
  -13.5231  -27.6522   14.3183 H   0  0  0  0  0  0  0  0  0  0  0  0
  -14.5399  -27.2088   16.5135 H   0  0  0  0  0  0  0  0  0  0  0  0
  -13.6459  -25.6928   16.6737 H   0  0  0  0  0  0  0  0  0  0  0  0
  -14.8871  -25.8639   15.4173 H   0  0  0  0  0  0  0  0  0  0  0  0
  -11.4821  -25.7223   14.4639 H   0  0  0  0  0  0  0  0  0  0  0  0
  -13.5924  -26.0007   12.4467 H   0  0  0  0  0  0  0  0  0  0  0  0
  -12.1860  -27.0257   12.5245 H   0  0  0  0  0  0  0  0  0  0  0  0
  -12.6067  -24.3280   11.5079 H   0  0  0  0  0  0  0  0  0  0  0  0
  -10.4737  -23.1733   11.9074 H   0  0  0  0  0  0  0  0  0  0  0  0
  -11.5975  -23.3133   13.2551 H   0  0  0  0  0  0  0  0  0  0  0  0
  -10.1522  -24.3083   13.2356 H   0  0  0  0  0  0  0  0  0  0  0  0
   -9.6087  -26.5816   10.5455 H   0  0  0  0  0  0  0  0  0  0  0  0
  -10.2352  -26.5057   12.1287 H   0  0  0  0  0  0  0  0  0  0  0  0
   -9.3554  -25.0942   11.3435 H   0  0  0  0  0  0  0  0  0  0  0  0
  -11.4708  -24.6277    7.7727 H   0  0  0  0  0  0  0  0  0  0  0  0
  -12.9466  -23.2975    6.2736 H   0  0  0  0  0  0  0  0  0  0  0  0
  -15.4208  -23.4056    6.6338 H   0  0  0  0  0  0  0  0  0  0  0  0
  -15.0044  -26.0454    9.7764 H   0  0  0  0  0  0  0  0  0  0  0  0
   -9.0440  -27.5914   15.8448 H   0  0  0  0  0  0  0  0  0  0  0  0
   -9.2774  -29.2642   15.6852 H   0  0  0  0  0  0  0  0  0  0  0  0
   -8.5397  -27.2010   13.4812 H   0  0  0  0  0  0  0  0  0  0  0  0
   -7.3900  -28.2737   14.2832 H   0  0  0  0  0  0  0  0  0  0  0  0
  1  2  1  0
  2  3  1  0
  3  4  1  0
  4  5  1  0
  5  6  1  0
  6  7  2  0
  6  8  1  0
  8  9  1  0
  8 10  1  0
 10 11  1  0
 11 12  1  0
 12 13  1  0
 12 14  1  0
 14 15  1  0
 14 16  1  0
 16 17  2  0
 16 18  1  0
 18 19  2  0
 19 20  1  0
 20 21  2  0
 21 22  1  0
 22 23  2  0
  5 24  1  0
 24 25  1  0
 25  2  1  0
 23 18  1  0
  1 26  1  0
  1 27  1  0
  1 28  1  0
  2 29  1  0
  3 30  1  0
  3 31  1  0
  4 32  1  0
  4 33  1  0
  8 34  1  0
  9 35  1  0
  9 36  1  0
  9 37  1  0
 10 38  1  0
 11 39  1  0
 11 40  1  0
 12 41  1  0
 13 42  1  0
 13 43  1  0
 13 44  1  0
 15 45  1  0
 15 46  1  0
 15 47  1  0
 19 48  1  0
 20 49  1  0
 21 50  1  0
 23 51  1  0
 24 52  1  0
 24 53  1  0
 25 54  1  0
 25 55  1  0
M  END
>  <Energy>  (1149) 
232.23494493928024

>  <compound_id>  (1149) 
13973

>  <target_id>  (1149) 
1

>  <reference_id>  (1149) 
9

>  <inspiration_ids>  (1149) 
[9, 48]

>  <energy_score>  (1149) 
79.3051217003663

>  <distance_score>  (1149) 
3.2212889747152933

>  <path>  (1149) 
/opt/xchem-fragalysis-2/maxwin/BulkDock/SCRATCH/511014/C13973-P9/C13973-P9.minimised.mol

>  <scratch_subdir>  (1149) 
/opt/xchem-fragalysis-2/maxwin/BulkDock/SCRATCH/511014/C13973-P9

>  <fragmenstein_runtime>  (1149) 
5.840004205703735

>  <fragmenstein_outcome>  (1149) 
too moved

>  <fragmenstein_mode>  (1149) 
expansion

>  <fragmenstein_error>  (1149) 


$$$$
C13973-P48
     RDKit          3D

 55 56  0  0  0  0  0  0  0  0999 V2000
   -9.6493  -25.5362   11.9915 C   0  0  0  0  0  0  0  0  0  0  0  0
   -9.9085  -26.3835   13.2277 C   0  0  0  0  0  0  0  0  0  0  0  0
  -10.8246  -27.5654   12.9656 C   0  0  0  0  0  0  0  0  0  0  0  0
  -11.2556  -28.1781   14.3109 C   0  0  0  0  0  0  0  0  0  0  0  0
  -12.2527  -27.3354   15.0996 N   0  0  0  0  0  0  0  0  0  0  0  0
  -13.0733  -28.1768   15.9117 C   0  0  0  0  0  0  0  0  0  0  0  0
  -12.9266  -28.5532   17.0455 O   0  0  0  0  0  0  0  0  0  0  0  0
  -14.3608  -28.5596   15.1066 C   0  0  0  0  0  0  0  0  0  0  0  0
  -15.1943  -29.5557   15.9187 C   0  0  0  0  0  0  0  0  0  0  0  0
  -15.2367  -27.3953   14.8161 N   0  0  0  0  0  0  0  0  0  0  0  0
  -14.7054  -26.4880   13.7888 C   0  0  0  0  0  0  0  0  0  0  0  0
  -15.8652  -25.7524   13.0113 C   0  0  0  0  0  0  0  0  0  0  0  0
  -16.4253  -26.7335   11.9495 C   0  0  0  0  0  0  0  0  0  0  0  0
  -15.4141  -24.4307   12.2590 N   0  0  0  0  0  0  0  0  0  0  0  0
  -15.8441  -23.8112   13.5443 C   0  0  0  0  0  0  0  0  0  0  0  0
  -14.1161  -24.6019   11.6976 C   0  0  0  0  0  0  0  0  0  0  0  0
  -13.0298  -24.3719   12.1572 O   0  0  0  0  0  0  0  0  0  0  0  0
  -14.1249  -25.0452   10.2760 C   0  0  0  0  0  0  0  0  0  0  0  0
  -13.0427  -25.7519    9.7421 C   0  0  0  0  0  0  0  0  0  0  0  0
  -13.0201  -26.0648    8.3850 C   0  0  0  0  0  0  0  0  0  0  0  0
  -14.0850  -25.6522    7.6021 C   0  0  0  0  0  0  0  0  0  0  0  0
  -15.1466  -24.9660    8.0813 N   0  0  0  0  0  0  0  0  0  0  0  0
  -15.1389  -24.6716    9.4068 C   0  0  0  0  0  0  0  0  0  0  0  0
  -11.0103  -26.5642   15.4325 C   0  0  0  0  0  0  0  0  0  0  0  0
  -10.5404  -25.5879   14.3530 C   0  0  0  0  0  0  0  0  0  0  0  0
  -10.5587  -25.0505   11.6322 H   0  0  0  0  0  0  0  0  0  0  0  0
   -9.2442  -26.1469   11.1783 H   0  0  0  0  0  0  0  0  0  0  0  0
   -8.9234  -24.7491   12.2144 H   0  0  0  0  0  0  0  0  0  0  0  0
   -8.9465  -26.7795   13.5772 H   0  0  0  0  0  0  0  0  0  0  0  0
  -10.3058  -28.3176   12.3604 H   0  0  0  0  0  0  0  0  0  0  0  0
  -11.7136  -27.2530   12.4062 H   0  0  0  0  0  0  0  0  0  0  0  0
  -10.4450  -28.6492   14.8943 H   0  0  0  0  0  0  0  0  0  0  0  0
  -11.8309  -29.0692   14.0150 H   0  0  0  0  0  0  0  0  0  0  0  0
  -14.0720  -29.0566   14.1735 H   0  0  0  0  0  0  0  0  0  0  0  0
  -14.6095  -30.4536   16.1479 H   0  0  0  0  0  0  0  0  0  0  0  0
  -15.5286  -29.1266   16.8706 H   0  0  0  0  0  0  0  0  0  0  0  0
  -16.0818  -29.8721   15.3591 H   0  0  0  0  0  0  0  0  0  0  0  0
  -15.3721  -26.8755   15.6857 H   0  0  0  0  0  0  0  0  0  0  0  0
  -14.0995  -27.0389   13.0595 H   0  0  0  0  0  0  0  0  0  0  0  0
  -14.0484  -25.7605   14.2742 H   0  0  0  0  0  0  0  0  0  0  0  0
  -16.7478  -25.6474   13.6702 H   0  0  0  0  0  0  0  0  0  0  0  0
  -17.1978  -26.2448   11.3462 H   0  0  0  0  0  0  0  0  0  0  0  0
  -16.8797  -27.6059   12.4321 H   0  0  0  0  0  0  0  0  0  0  0  0
  -15.6490  -27.1042   11.2746 H   0  0  0  0  0  0  0  0  0  0  0  0
  -16.9367  -23.7444   13.6473 H   0  0  0  0  0  0  0  0  0  0  0  0
  -15.5392  -22.7618   13.4299 H   0  0  0  0  0  0  0  0  0  0  0  0
  -15.3037  -24.1069   14.4520 H   0  0  0  0  0  0  0  0  0  0  0  0
  -12.2110  -26.0420   10.3747 H   0  0  0  0  0  0  0  0  0  0  0  0
  -12.1851  -26.6008    7.9474 H   0  0  0  0  0  0  0  0  0  0  0  0
  -14.1124  -25.8640    6.5367 H   0  0  0  0  0  0  0  0  0  0  0  0
  -15.9928  -24.0911    9.7449 H   0  0  0  0  0  0  0  0  0  0  0  0
  -11.3939  -25.9210   16.2375 H   0  0  0  0  0  0  0  0  0  0  0  0
  -10.2144  -27.1022   15.9751 H   0  0  0  0  0  0  0  0  0  0  0  0
  -11.3949  -25.0060   13.9922 H   0  0  0  0  0  0  0  0  0  0  0  0
   -9.8250  -24.8723   14.7653 H   0  0  0  0  0  0  0  0  0  0  0  0
  1  2  1  0
  2  3  1  0
  3  4  1  0
  4  5  1  0
  5  6  1  0
  6  7  2  0
  6  8  1  0
  8  9  1  0
  8 10  1  0
 10 11  1  0
 11 12  1  0
 12 13  1  0
 12 14  1  0
 14 15  1  0
 14 16  1  0
 16 17  2  0
 16 18  1  0
 18 19  2  0
 19 20  1  0
 20 21  2  0
 21 22  1  0
 22 23  2  0
  5 24  1  0
 24 25  1  0
 25  2  1  0
 23 18  1  0
  1 26  1  0
  1 27  1  0
  1 28  1  0
  2 29  1  0
  3 30  1  0
  3 31  1  0
  4 32  1  0
  4 33  1  0
  8 34  1  0
  9 35  1  0
  9 36  1  0
  9 37  1  0
 10 38  1  0
 11 39  1  0
 11 40  1  0
 12 41  1  0
 13 42  1  0
 13 43  1  0
 13 44  1  0
 15 45  1  0
 15 46  1  0
 15 47  1  0
 19 48  1  0
 20 49  1  0
 21 50  1  0
 23 51  1  0
 24 52  1  0
 24 53  1  0
 25 54  1  0
 25 55  1  0
M  END
>  <Energy>  (1150) 
221.72977587470814

>  <compound_id>  (1150) 
13973

>  <target_id>  (1150) 
1

>  <reference_id>  (1150) 
48

>  <inspiration_ids>  (1150) 
[9, 48]

>  <energy_score>  (1150) 
68.79995263579286

>  <distance_score>  (1150) 
2.4516896757222364

>  <path>  (1150) 
/opt/xchem-fragalysis-2/maxwin/BulkDock/SCRATCH/511014/C13973-P48/C13973-P48.minimised.mol

>  <scratch_subdir>  (1150) 
/opt/xchem-fragalysis-2/maxwin/BulkDock/SCRATCH/511014/C13973-P48

>  <fragmenstein_runtime>  (1150) 
6.339381217956543

>  <fragmenstein_outcome>  (1150) 
too moved

>  <fragmenstein_mode>  (1150) 
expansion

>  <fragmenstein_error>  (1150) 


$$$$
C17683-P107
     RDKit          3D

 47 50  0  0  0  0  0  0  0  0999 V2000
   -3.7635  -10.2603   36.7912 O   0  0  0  0  0  0  0  0  0  0  0  0
   -3.5506  -10.8434   35.7622 C   0  0  0  0  0  0  0  0  0  0  0  0
   -2.9006   -9.7068   34.5853 C   0  0  0  0  0  0  0  0  0  0  0  0
   -2.4946   -8.4536   35.0710 C   0  0  0  0  0  0  0  0  0  0  0  0
   -1.8808   -7.7403   34.0997 N   0  0  0  0  0  0  0  0  0  0  0  0
   -1.1991   -6.5369   34.1711 C   0  0  0  0  0  0  0  0  0  0  0  0
   -0.6488   -6.0372   33.0587 C   0  0  0  0  0  0  0  0  0  0  0  0
   -0.8840   -6.8523   31.8365 C   0  0  0  0  0  0  0  0  0  0  0  0
   -1.5551   -7.9652   31.7585 N   0  0  0  0  0  0  0  0  0  0  0  0
   -2.0085   -8.4714   32.9433 C   0  0  0  0  0  0  0  0  0  0  0  0
   -2.4996   -9.6648   33.2304 N   0  0  0  0  0  0  0  0  0  0  0  0
   -3.6667  -12.7003   35.2929 N   0  0  0  0  0  0  0  0  0  0  0  0
   -4.0145  -14.1121   36.6801 C   0  0  0  0  0  0  0  0  0  0  0  0
   -2.9853  -15.5405   37.4108 C   0  0  0  0  0  0  0  0  0  0  0  0
   -1.9568  -16.2772   36.7595 C   0  0  0  0  0  0  0  0  0  0  0  0
   -1.1433  -17.0992   37.5126 C   0  0  0  0  0  0  0  0  0  0  0  0
   -1.2460  -17.2185   38.8468 N   0  0  0  0  0  0  0  0  0  0  0  0
   -2.2239  -16.5191   39.4609 C   0  0  0  0  0  0  0  0  0  0  0  0
   -3.1067  -15.6785   38.8110 C   0  0  0  0  0  0  0  0  0  0  0  0
   -4.2660  -14.3100   36.0781 C   0  0  0  0  0  0  0  0  0  0  0  0
   -5.9147  -15.3863   36.4855 C   0  0  0  0  0  0  0  0  0  0  0  0
   -6.6876  -15.8097   35.3074 O   0  0  0  0  0  0  0  0  0  0  0  0
   -6.0578  -16.6375   37.3838 C   0  0  0  0  0  0  0  0  0  0  0  0
   -6.1648  -16.5285   38.7748 C   0  0  0  0  0  0  0  0  0  0  0  0
   -6.3588  -17.6685   39.5700 C   0  0  0  0  0  0  0  0  0  0  0  0
   -6.4369  -18.9377   39.0016 C   0  0  0  0  0  0  0  0  0  0  0  0
   -6.3804  -19.0690   37.6260 C   0  0  0  0  0  0  0  0  0  0  0  0
   -6.2697  -17.9287   36.8360 C   0  0  0  0  0  0  0  0  0  0  0  0
   -2.4474   -8.1205   36.0821 H   0  0  0  0  0  0  0  0  0  0  0  0
   -1.1294   -6.0490   35.1338 H   0  0  0  0  0  0  0  0  0  0  0  0
   -0.0817   -5.1202   33.0002 H   0  0  0  0  0  0  0  0  0  0  0  0
   -0.4545   -6.4336   30.9106 H   0  0  0  0  0  0  0  0  0  0  0  0
   -3.0673  -13.7629   37.1858 H   0  0  0  0  0  0  0  0  0  0  0  0
   -4.3093  -13.8401   37.8241 H   0  0  0  0  0  0  0  0  0  0  0  0
   -1.6952  -16.1904   35.7170 H   0  0  0  0  0  0  0  0  0  0  0  0
   -0.3457  -17.6759   37.0532 H   0  0  0  0  0  0  0  0  0  0  0  0
   -2.2665  -16.6448   40.5395 H   0  0  0  0  0  0  0  0  0  0  0  0
   -3.8030  -15.1012   39.4049 H   0  0  0  0  0  0  0  0  0  0  0  0
   -4.6912  -14.4521   34.9834 H   0  0  0  0  0  0  0  0  0  0  0  0
   -3.5118  -14.9945   35.3424 H   0  0  0  0  0  0  0  0  0  0  0  0
   -6.5784  -14.7052   37.0315 H   0  0  0  0  0  0  0  0  0  0  0  0
   -7.6167  -15.5209   35.3693 H   0  0  0  0  0  0  0  0  0  0  0  0
   -6.1193  -15.5595   39.2643 H   0  0  0  0  0  0  0  0  0  0  0  0
   -6.4294  -17.5636   40.6505 H   0  0  0  0  0  0  0  0  0  0  0  0
   -6.5537  -19.8163   39.6292 H   0  0  0  0  0  0  0  0  0  0  0  0
   -6.4558  -20.0475   37.1579 H   0  0  0  0  0  0  0  0  0  0  0  0
   -6.3396  -18.0732   35.7595 H   0  0  0  0  0  0  0  0  0  0  0  0
  1  2  2  0
  2  3  1  0
  3  4  2  0
  4  5  1  0
  5  6  1  0
  6  7  2  0
  7  8  1  0
  8  9  2  0
  9 10  1  0
 10 11  2  0
  2 12  1  0
 12 13  1  0
 13 14  1  0
 14 15  2  0
 15 16  1  0
 16 17  2  0
 17 18  1  0
 18 19  2  0
 12 20  1  0
 20 21  1  0
 21 22  1  0
 21 23  1  0
 23 24  2  0
 24 25  1  0
 25 26  2  0
 26 27  1  0
 27 28  2  0
 11  3  1  0
 19 14  1  0
 28 23  1  0
 10  5  1  0
  4 29  1  0
  6 30  1  0
  7 31  1  0
  8 32  1  0
 13 33  1  0
 13 34  1  0
 15 35  1  0
 16 36  1  0
 18 37  1  0
 19 38  1  0
 20 39  1  0
 20 40  1  0
 21 41  1  0
 22 42  1  0
 24 43  1  0
 25 44  1  0
 26 45  1  0
 27 46  1  0
 28 47  1  0
M  END
>  <Energy>  (1151) 
1095.5885938192871

>  <compound_id>  (1151) 
17683

>  <target_id>  (1151) 
1

>  <reference_id>  (1151) 
107

>  <inspiration_ids>  (1151) 
[107, 56]

>  <energy_score>  (1151) 
959.428620304431

>  <distance_score>  (1151) 
9.885731051250275

>  <path>  (1151) 
/opt/xchem-fragalysis-2/maxwin/BulkDock/SCRATCH/511014/C17683-P107/C17683-P107.minimised.mol

>  <scratch_subdir>  (1151) 
/opt/xchem-fragalysis-2/maxwin/BulkDock/SCRATCH/511014/C17683-P107

>  <fragmenstein_runtime>  (1151) 
25.294140815734863

>  <fragmenstein_outcome>  (1151) 
too moved

>  <fragmenstein_mode>  (1151) 
expansion

>  <fragmenstein_error>  (1151) 


$$$$
C17683-P56
     RDKit          3D

 47 50  0  0  0  0  0  0  0  0999 V2000
    1.5149  -13.1734   31.0429 O   0  0  0  0  0  0  0  0  0  0  0  0
    0.3516  -13.0716   31.0875 C   0  0  0  0  0  0  0  0  0  0  0  0
   -0.5417  -11.2855   30.9793 C   0  0  0  0  0  0  0  0  0  0  0  0
   -0.2537  -10.1334   30.0050 C   0  0  0  0  0  0  0  0  0  0  0  0
   -0.7314   -8.9532   30.5764 N   0  0  0  0  0  0  0  0  0  0  0  0
   -0.5008   -7.6171   30.2661 C   0  0  0  0  0  0  0  0  0  0  0  0
   -0.8015   -6.6729   31.1679 C   0  0  0  0  0  0  0  0  0  0  0  0
   -1.4441   -7.1700   32.4157 C   0  0  0  0  0  0  0  0  0  0  0  0
   -1.8164   -8.3915   32.6457 N   0  0  0  0  0  0  0  0  0  0  0  0
   -1.4519   -9.3161   31.7063 C   0  0  0  0  0  0  0  0  0  0  0  0
   -1.6061  -10.6273   31.6953 N   0  0  0  0  0  0  0  0  0  0  0  0
   -0.8532  -14.1898   31.3223 N   0  0  0  0  0  0  0  0  0  0  0  0
   -0.6003  -15.4546   31.6483 C   0  0  0  0  0  0  0  0  0  0  0  0
   -0.9553  -14.5607   33.0977 C   0  0  0  0  0  0  0  0  0  0  0  0
   -0.2488  -13.0347   33.3348 C   0  0  0  0  0  0  0  0  0  0  0  0
   -1.1006  -11.6605   33.8610 C   0  0  0  0  0  0  0  0  0  0  0  0
   -2.3411  -12.1086   34.3605 N   0  0  0  0  0  0  0  0  0  0  0  0
   -3.0965  -13.8106   34.1468 C   0  0  0  0  0  0  0  0  0  0  0  0
   -2.4067  -14.9098   33.4188 C   0  0  0  0  0  0  0  0  0  0  0  0
   -0.9939  -16.1912   31.4689 C   0  0  0  0  0  0  0  0  0  0  0  0
   -2.4455  -17.2934   32.3102 C   0  0  0  0  0  0  0  0  0  0  0  0
   -1.8031  -18.6344   32.0832 O   0  0  0  0  0  0  0  0  0  0  0  0
   -4.3764  -17.6172   32.6097 C   0  0  0  0  0  0  0  0  0  0  0  0
   -4.8095  -19.4226   32.6286 C   0  0  0  0  0  0  0  0  0  0  0  0
   -6.0406  -19.8688   33.1491 C   0  0  0  0  0  0  0  0  0  0  0  0
   -7.0049  -18.8464   33.6221 C   0  0  0  0  0  0  0  0  0  0  0  0
   -6.8458  -17.4636   33.2967 C   0  0  0  0  0  0  0  0  0  0  0  0
   -5.6059  -16.8875   32.7438 C   0  0  0  0  0  0  0  0  0  0  0  0
    0.4569  -10.0873   29.1893 H   0  0  0  0  0  0  0  0  0  0  0  0
   -0.0118   -7.3991   29.3266 H   0  0  0  0  0  0  0  0  0  0  0  0
   -0.5951   -5.6194   31.0497 H   0  0  0  0  0  0  0  0  0  0  0  0
   -1.6396   -6.3990   33.1776 H   0  0  0  0  0  0  0  0  0  0  0  0
    0.4443  -15.2811   30.9777 H   0  0  0  0  0  0  0  0  0  0  0  0
    0.3967  -15.6351   32.4266 H   0  0  0  0  0  0  0  0  0  0  0  0
    0.8442  -13.0076   33.3814 H   0  0  0  0  0  0  0  0  0  0  0  0
   -0.7722  -10.7062   34.2394 H   0  0  0  0  0  0  0  0  0  0  0  0
   -3.9834  -13.9739   34.7753 H   0  0  0  0  0  0  0  0  0  0  0  0
   -3.0687  -15.6501   33.1054 H   0  0  0  0  0  0  0  0  0  0  0  0
   -0.1293  -17.0506   31.1141 H   0  0  0  0  0  0  0  0  0  0  0  0
   -1.6000  -16.3333   30.4142 H   0  0  0  0  0  0  0  0  0  0  0  0
   -2.1020  -17.2111   33.3489 H   0  0  0  0  0  0  0  0  0  0  0  0
   -1.6359  -18.7195   31.1311 H   0  0  0  0  0  0  0  0  0  0  0  0
   -4.0218  -20.1796   32.4910 H   0  0  0  0  0  0  0  0  0  0  0  0
   -6.3055  -20.8985   33.1854 H   0  0  0  0  0  0  0  0  0  0  0  0
   -7.9368  -19.1870   34.0422 H   0  0  0  0  0  0  0  0  0  0  0  0
   -7.6407  -16.7739   33.5873 H   0  0  0  0  0  0  0  0  0  0  0  0
   -5.6303  -15.8598   32.8392 H   0  0  0  0  0  0  0  0  0  0  0  0
  1  2  2  0
  2  3  1  0
  3  4  2  0
  4  5  1  0
  5  6  1  0
  6  7  2  0
  7  8  1  0
  8  9  2  0
  9 10  1  0
 10 11  2  0
  2 12  1  0
 12 13  1  0
 13 14  1  0
 14 15  2  0
 15 16  1  0
 16 17  2  0
 17 18  1  0
 18 19  2  0
 12 20  1  0
 20 21  1  0
 21 22  1  0
 21 23  1  0
 23 24  2  0
 24 25  1  0
 25 26  2  0
 26 27  1  0
 27 28  2  0
 11  3  1  0
 19 14  1  0
 28 23  1  0
 10  5  1  0
  4 29  1  0
  6 30  1  0
  7 31  1  0
  8 32  1  0
 13 33  1  0
 13 34  1  0
 15 35  1  0
 16 36  1  0
 18 37  1  0
 19 38  1  0
 20 39  1  0
 20 40  1  0
 21 41  1  0
 22 42  1  0
 24 43  1  0
 25 44  1  0
 26 45  1  0
 27 46  1  0
 28 47  1  0
M  END
>  <Energy>  (1152) 
1422.9286371939415

>  <compound_id>  (1152) 
17683

>  <target_id>  (1152) 
1

>  <reference_id>  (1152) 
56

>  <inspiration_ids>  (1152) 
[107, 56]

>  <energy_score>  (1152) 
1286.7686636790872

>  <distance_score>  (1152) 
8.795453908850014

>  <path>  (1152) 
/opt/xchem-fragalysis-2/maxwin/BulkDock/SCRATCH/511014/C17683-P56/C17683-P56.minimised.mol

>  <scratch_subdir>  (1152) 
/opt/xchem-fragalysis-2/maxwin/BulkDock/SCRATCH/511014/C17683-P56

>  <fragmenstein_runtime>  (1152) 
24.744433879852295

>  <fragmenstein_outcome>  (1152) 
too moved

>  <fragmenstein_mode>  (1152) 
expansion

>  <fragmenstein_error>  (1152) 


$$$$
C17683-P107
     RDKit          3D

 47 50  0  0  0  0  0  0  0  0999 V2000
   -3.7635  -10.2603   36.7912 O   0  0  0  0  0  0  0  0  0  0  0  0
   -3.5506  -10.8434   35.7622 C   0  0  0  0  0  0  0  0  0  0  0  0
   -2.9006   -9.7068   34.5853 C   0  0  0  0  0  0  0  0  0  0  0  0
   -2.4946   -8.4536   35.0710 C   0  0  0  0  0  0  0  0  0  0  0  0
   -1.8808   -7.7403   34.0997 N   0  0  0  0  0  0  0  0  0  0  0  0
   -1.1991   -6.5369   34.1711 C   0  0  0  0  0  0  0  0  0  0  0  0
   -0.6488   -6.0372   33.0587 C   0  0  0  0  0  0  0  0  0  0  0  0
   -0.8840   -6.8523   31.8365 C   0  0  0  0  0  0  0  0  0  0  0  0
   -1.5551   -7.9652   31.7585 N   0  0  0  0  0  0  0  0  0  0  0  0
   -2.0085   -8.4714   32.9433 C   0  0  0  0  0  0  0  0  0  0  0  0
   -2.4996   -9.6648   33.2304 N   0  0  0  0  0  0  0  0  0  0  0  0
   -3.6667  -12.7003   35.2929 N   0  0  0  0  0  0  0  0  0  0  0  0
   -4.0145  -14.1121   36.6801 C   0  0  0  0  0  0  0  0  0  0  0  0
   -2.9853  -15.5405   37.4108 C   0  0  0  0  0  0  0  0  0  0  0  0
   -1.9568  -16.2772   36.7595 C   0  0  0  0  0  0  0  0  0  0  0  0
   -1.1433  -17.0992   37.5126 C   0  0  0  0  0  0  0  0  0  0  0  0
   -1.2460  -17.2185   38.8468 N   0  0  0  0  0  0  0  0  0  0  0  0
   -2.2239  -16.5191   39.4609 C   0  0  0  0  0  0  0  0  0  0  0  0
   -3.1067  -15.6785   38.8110 C   0  0  0  0  0  0  0  0  0  0  0  0
   -4.2660  -14.3100   36.0781 C   0  0  0  0  0  0  0  0  0  0  0  0
   -5.9147  -15.3863   36.4855 C   0  0  0  0  0  0  0  0  0  0  0  0
   -6.6876  -15.8097   35.3074 O   0  0  0  0  0  0  0  0  0  0  0  0
   -6.0578  -16.6375   37.3838 C   0  0  0  0  0  0  0  0  0  0  0  0
   -6.1648  -16.5285   38.7748 C   0  0  0  0  0  0  0  0  0  0  0  0
   -6.3588  -17.6685   39.5700 C   0  0  0  0  0  0  0  0  0  0  0  0
   -6.4369  -18.9377   39.0016 C   0  0  0  0  0  0  0  0  0  0  0  0
   -6.3804  -19.0690   37.6260 C   0  0  0  0  0  0  0  0  0  0  0  0
   -6.2697  -17.9287   36.8360 C   0  0  0  0  0  0  0  0  0  0  0  0
   -2.4474   -8.1205   36.0821 H   0  0  0  0  0  0  0  0  0  0  0  0
   -1.1294   -6.0490   35.1338 H   0  0  0  0  0  0  0  0  0  0  0  0
   -0.0817   -5.1202   33.0002 H   0  0  0  0  0  0  0  0  0  0  0  0
   -0.4545   -6.4336   30.9106 H   0  0  0  0  0  0  0  0  0  0  0  0
   -3.0673  -13.7629   37.1858 H   0  0  0  0  0  0  0  0  0  0  0  0
   -4.3093  -13.8401   37.8241 H   0  0  0  0  0  0  0  0  0  0  0  0
   -1.6952  -16.1904   35.7170 H   0  0  0  0  0  0  0  0  0  0  0  0
   -0.3457  -17.6759   37.0532 H   0  0  0  0  0  0  0  0  0  0  0  0
   -2.2665  -16.6448   40.5395 H   0  0  0  0  0  0  0  0  0  0  0  0
   -3.8030  -15.1012   39.4049 H   0  0  0  0  0  0  0  0  0  0  0  0
   -4.6912  -14.4521   34.9834 H   0  0  0  0  0  0  0  0  0  0  0  0
   -3.5118  -14.9945   35.3424 H   0  0  0  0  0  0  0  0  0  0  0  0
   -6.5784  -14.7052   37.0315 H   0  0  0  0  0  0  0  0  0  0  0  0
   -7.6167  -15.5209   35.3693 H   0  0  0  0  0  0  0  0  0  0  0  0
   -6.1193  -15.5595   39.2643 H   0  0  0  0  0  0  0  0  0  0  0  0
   -6.4294  -17.5636   40.6505 H   0  0  0  0  0  0  0  0  0  0  0  0
   -6.5537  -19.8163   39.6292 H   0  0  0  0  0  0  0  0  0  0  0  0
   -6.4558  -20.0475   37.1579 H   0  0  0  0  0  0  0  0  0  0  0  0
   -6.3396  -18.0732   35.7595 H   0  0  0  0  0  0  0  0  0  0  0  0
  1  2  2  0
  2  3  1  0
  3  4  2  0
  4  5  1  0
  5  6  1  0
  6  7  2  0
  7  8  1  0
  8  9  2  0
  9 10  1  0
 10 11  2  0
  2 12  1  0
 12 13  1  0
 13 14  1  0
 14 15  2  0
 15 16  1  0
 16 17  2  0
 17 18  1  0
 18 19  2  0
 12 20  1  0
 20 21  1  0
 21 22  1  0
 21 23  1  0
 23 24  2  0
 24 25  1  0
 25 26  2  0
 26 27  1  0
 27 28  2  0
 11  3  1  0
 19 14  1  0
 28 23  1  0
 10  5  1  0
  4 29  1  0
  6 30  1  0
  7 31  1  0
  8 32  1  0
 13 33  1  0
 13 34  1  0
 15 35  1  0
 16 36  1  0
 18 37  1  0
 19 38  1  0
 20 39  1  0
 20 40  1  0
 21 41  1  0
 22 42  1  0
 24 43  1  0
 25 44  1  0
 26 45  1  0
 27 46  1  0
 28 47  1  0
M  END
>  <Energy>  (1153) 
1095.5885938192871

>  <compound_id>  (1153) 
17683

>  <target_id>  (1153) 
1

>  <reference_id>  (1153) 
107

>  <inspiration_ids>  (1153) 
[107, 56]

>  <energy_score>  (1153) 
959.428620304431

>  <distance_score>  (1153) 
9.885731051250275

>  <path>  (1153) 
/opt/xchem-fragalysis-2/maxwin/BulkDock/SCRATCH/511014/C17683-P107/C17683-P107.minimised.mol

>  <scratch_subdir>  (1153) 
/opt/xchem-fragalysis-2/maxwin/BulkDock/SCRATCH/511014/C17683-P107

>  <fragmenstein_runtime>  (1153) 
25.661309957504272

>  <fragmenstein_outcome>  (1153) 
too moved

>  <fragmenstein_mode>  (1153) 
expansion

>  <fragmenstein_error>  (1153) 


$$$$
C17683-P56
     RDKit          3D

 47 50  0  0  0  0  0  0  0  0999 V2000
    1.5149  -13.1734   31.0429 O   0  0  0  0  0  0  0  0  0  0  0  0
    0.3516  -13.0716   31.0875 C   0  0  0  0  0  0  0  0  0  0  0  0
   -0.5417  -11.2855   30.9793 C   0  0  0  0  0  0  0  0  0  0  0  0
   -0.2537  -10.1334   30.0050 C   0  0  0  0  0  0  0  0  0  0  0  0
   -0.7314   -8.9532   30.5764 N   0  0  0  0  0  0  0  0  0  0  0  0
   -0.5008   -7.6171   30.2661 C   0  0  0  0  0  0  0  0  0  0  0  0
   -0.8015   -6.6729   31.1679 C   0  0  0  0  0  0  0  0  0  0  0  0
   -1.4441   -7.1700   32.4157 C   0  0  0  0  0  0  0  0  0  0  0  0
   -1.8164   -8.3915   32.6457 N   0  0  0  0  0  0  0  0  0  0  0  0
   -1.4519   -9.3161   31.7063 C   0  0  0  0  0  0  0  0  0  0  0  0
   -1.6061  -10.6273   31.6953 N   0  0  0  0  0  0  0  0  0  0  0  0
   -0.8532  -14.1898   31.3223 N   0  0  0  0  0  0  0  0  0  0  0  0
   -0.6003  -15.4546   31.6483 C   0  0  0  0  0  0  0  0  0  0  0  0
   -0.9553  -14.5607   33.0977 C   0  0  0  0  0  0  0  0  0  0  0  0
   -0.2488  -13.0347   33.3348 C   0  0  0  0  0  0  0  0  0  0  0  0
   -1.1006  -11.6605   33.8610 C   0  0  0  0  0  0  0  0  0  0  0  0
   -2.3411  -12.1086   34.3605 N   0  0  0  0  0  0  0  0  0  0  0  0
   -3.0965  -13.8106   34.1468 C   0  0  0  0  0  0  0  0  0  0  0  0
   -2.4067  -14.9098   33.4188 C   0  0  0  0  0  0  0  0  0  0  0  0
   -0.9939  -16.1912   31.4689 C   0  0  0  0  0  0  0  0  0  0  0  0
   -2.4455  -17.2934   32.3102 C   0  0  0  0  0  0  0  0  0  0  0  0
   -1.8031  -18.6344   32.0832 O   0  0  0  0  0  0  0  0  0  0  0  0
   -4.3764  -17.6172   32.6097 C   0  0  0  0  0  0  0  0  0  0  0  0
   -4.8095  -19.4226   32.6286 C   0  0  0  0  0  0  0  0  0  0  0  0
   -6.0406  -19.8688   33.1491 C   0  0  0  0  0  0  0  0  0  0  0  0
   -7.0049  -18.8464   33.6221 C   0  0  0  0  0  0  0  0  0  0  0  0
   -6.8458  -17.4636   33.2967 C   0  0  0  0  0  0  0  0  0  0  0  0
   -5.6059  -16.8875   32.7438 C   0  0  0  0  0  0  0  0  0  0  0  0
    0.4569  -10.0873   29.1893 H   0  0  0  0  0  0  0  0  0  0  0  0
   -0.0118   -7.3991   29.3266 H   0  0  0  0  0  0  0  0  0  0  0  0
   -0.5951   -5.6194   31.0497 H   0  0  0  0  0  0  0  0  0  0  0  0
   -1.6396   -6.3990   33.1776 H   0  0  0  0  0  0  0  0  0  0  0  0
    0.4443  -15.2811   30.9777 H   0  0  0  0  0  0  0  0  0  0  0  0
    0.3967  -15.6351   32.4266 H   0  0  0  0  0  0  0  0  0  0  0  0
    0.8442  -13.0076   33.3814 H   0  0  0  0  0  0  0  0  0  0  0  0
   -0.7722  -10.7062   34.2394 H   0  0  0  0  0  0  0  0  0  0  0  0
   -3.9834  -13.9739   34.7753 H   0  0  0  0  0  0  0  0  0  0  0  0
   -3.0687  -15.6501   33.1054 H   0  0  0  0  0  0  0  0  0  0  0  0
   -0.1293  -17.0506   31.1141 H   0  0  0  0  0  0  0  0  0  0  0  0
   -1.6000  -16.3333   30.4142 H   0  0  0  0  0  0  0  0  0  0  0  0
   -2.1020  -17.2111   33.3489 H   0  0  0  0  0  0  0  0  0  0  0  0
   -1.6359  -18.7195   31.1311 H   0  0  0  0  0  0  0  0  0  0  0  0
   -4.0218  -20.1796   32.4910 H   0  0  0  0  0  0  0  0  0  0  0  0
   -6.3055  -20.8985   33.1854 H   0  0  0  0  0  0  0  0  0  0  0  0
   -7.9368  -19.1870   34.0422 H   0  0  0  0  0  0  0  0  0  0  0  0
   -7.6407  -16.7739   33.5873 H   0  0  0  0  0  0  0  0  0  0  0  0
   -5.6303  -15.8598   32.8392 H   0  0  0  0  0  0  0  0  0  0  0  0
  1  2  2  0
  2  3  1  0
  3  4  2  0
  4  5  1  0
  5  6  1  0
  6  7  2  0
  7  8  1  0
  8  9  2  0
  9 10  1  0
 10 11  2  0
  2 12  1  0
 12 13  1  0
 13 14  1  0
 14 15  2  0
 15 16  1  0
 16 17  2  0
 17 18  1  0
 18 19  2  0
 12 20  1  0
 20 21  1  0
 21 22  1  0
 21 23  1  0
 23 24  2  0
 24 25  1  0
 25 26  2  0
 26 27  1  0
 27 28  2  0
 11  3  1  0
 19 14  1  0
 28 23  1  0
 10  5  1  0
  4 29  1  0
  6 30  1  0
  7 31  1  0
  8 32  1  0
 13 33  1  0
 13 34  1  0
 15 35  1  0
 16 36  1  0
 18 37  1  0
 19 38  1  0
 20 39  1  0
 20 40  1  0
 21 41  1  0
 22 42  1  0
 24 43  1  0
 25 44  1  0
 26 45  1  0
 27 46  1  0
 28 47  1  0
M  END
>  <Energy>  (1154) 
1422.9286371939415

>  <compound_id>  (1154) 
17683

>  <target_id>  (1154) 
1

>  <reference_id>  (1154) 
56

>  <inspiration_ids>  (1154) 
[107, 56]

>  <energy_score>  (1154) 
1286.7686636790872

>  <distance_score>  (1154) 
8.795453908850014

>  <path>  (1154) 
/opt/xchem-fragalysis-2/maxwin/BulkDock/SCRATCH/511014/C17683-P56/C17683-P56.minimised.mol

>  <scratch_subdir>  (1154) 
/opt/xchem-fragalysis-2/maxwin/BulkDock/SCRATCH/511014/C17683-P56

>  <fragmenstein_runtime>  (1154) 
24.71806001663208

>  <fragmenstein_outcome>  (1154) 
too moved

>  <fragmenstein_mode>  (1154) 
expansion

>  <fragmenstein_error>  (1154) 


$$$$
C17706-P107
     RDKit          3D

 47 50  0  0  0  0  0  0  0  0999 V2000
   -2.3752  -10.1888   34.6605 C   0  0  0  0  0  0  0  0  0  0  0  0
   -3.8082  -10.3975   35.5993 C   0  0  0  0  0  0  0  0  0  0  0  0
   -5.6235   -9.8194   35.7251 C   0  0  0  0  0  0  0  0  0  0  0  0
   -4.6357   -9.0764   34.4993 N   0  0  0  0  0  0  0  0  0  0  0  0
   -3.4169   -8.1201   34.6300 C   0  0  0  0  0  0  0  0  0  0  0  0
   -2.9352   -7.6050   35.6077 O   0  0  0  0  0  0  0  0  0  0  0  0
   -2.4523   -7.7790   33.2671 C   0  0  0  0  0  0  0  0  0  0  0  0
   -1.4001   -6.7259   33.7812 C   0  0  0  0  0  0  0  0  0  0  0  0
   -0.6695   -6.0803   32.6997 C   0  0  0  0  0  0  0  0  0  0  0  0
   -0.7945   -6.2844   31.4193 N   0  0  0  0  0  0  0  0  0  0  0  0
    0.0405   -5.3326   30.9030 C   0  0  0  0  0  0  0  0  0  0  0  0
    0.0717   -5.1324   29.4753 C   0  0  0  0  0  0  0  0  0  0  0  0
    0.4511   -3.9119   28.9279 C   0  0  0  0  0  0  0  0  0  0  0  0
    0.3620   -3.7723   27.5579 C   0  0  0  0  0  0  0  0  0  0  0  0
   -0.0497   -4.7527   26.7271 N   0  0  0  0  0  0  0  0  0  0  0  0
   -0.4359   -5.9177   27.2810 C   0  0  0  0  0  0  0  0  0  0  0  0
   -0.3812   -6.1587   28.6359 C   0  0  0  0  0  0  0  0  0  0  0  0
    0.6609   -4.5685   31.8156 N   0  0  0  0  0  0  0  0  0  0  0  0
    0.1961   -5.0831   33.0279 O   0  0  0  0  0  0  0  0  0  0  0  0
   -7.1105  -11.1467   36.2180 C   0  0  0  0  0  0  0  0  0  0  0  0
   -7.3429  -12.7819   37.4260 C   0  0  0  0  0  0  0  0  0  0  0  0
   -7.4859  -14.3555   36.0927 N   0  0  0  0  0  0  0  0  0  0  0  0
   -7.8987  -15.8021   36.2104 C   0  0  0  0  0  0  0  0  0  0  0  0
   -7.8172  -16.6548   35.1920 C   0  0  0  0  0  0  0  0  0  0  0  0
   -7.5425  -16.2318   33.8134 C   0  0  0  0  0  0  0  0  0  0  0  0
   -7.4770  -15.0593   33.2415 N   0  0  0  0  0  0  0  0  0  0  0  0
   -7.2773  -13.6560   34.1971 C   0  0  0  0  0  0  0  0  0  0  0  0
   -7.9286  -11.8545   34.5374 N   0  0  0  0  0  0  0  0  0  0  0  0
   -1.7270   -9.3994   35.0258 H   0  0  0  0  0  0  0  0  0  0  0  0
   -1.7840  -11.0895   34.7203 H   0  0  0  0  0  0  0  0  0  0  0  0
   -2.4507  -10.0555   33.5891 H   0  0  0  0  0  0  0  0  0  0  0  0
   -3.6599  -11.4929   35.5618 H   0  0  0  0  0  0  0  0  0  0  0  0
   -3.6773   -9.8879   36.5648 H   0  0  0  0  0  0  0  0  0  0  0  0
   -5.6395   -9.1278   36.5777 H   0  0  0  0  0  0  0  0  0  0  0  0
   -4.8186   -9.2550   33.5204 H   0  0  0  0  0  0  0  0  0  0  0  0
   -1.7943   -8.5965   32.9805 H   0  0  0  0  0  0  0  0  0  0  0  0
   -2.9163   -7.6017   32.2951 H   0  0  0  0  0  0  0  0  0  0  0  0
   -0.6801   -7.2288   34.4366 H   0  0  0  0  0  0  0  0  0  0  0  0
   -1.8604   -5.9454   34.3852 H   0  0  0  0  0  0  0  0  0  0  0  0
    0.7775   -3.0804   29.5423 H   0  0  0  0  0  0  0  0  0  0  0  0
    0.6224   -2.8375   27.0701 H   0  0  0  0  0  0  0  0  0  0  0  0
   -0.7684   -6.6743   26.5776 H   0  0  0  0  0  0  0  0  0  0  0  0
   -0.6724   -7.1264   29.0267 H   0  0  0  0  0  0  0  0  0  0  0  0
   -8.2639  -12.9996   38.0263 H   0  0  0  0  0  0  0  0  0  0  0  0
   -8.1800  -16.1737   37.1915 H   0  0  0  0  0  0  0  0  0  0  0  0
   -7.9861  -17.7069   35.3357 H   0  0  0  0  0  0  0  0  0  0  0  0
   -7.4206  -17.1032   33.1563 H   0  0  0  0  0  0  0  0  0  0  0  0
  1  2  1  0
  2  3  1  0
  3  4  1  0
  4  5  1  0
  5  6  2  0
  5  7  1  0
  7  8  1  0
  8  9  1  0
  9 10  2  0
 10 11  1  0
 11 12  1  0
 12 13  2  0
 13 14  1  0
 14 15  2  0
 15 16  1  0
 16 17  2  0
 11 18  2  0
 18 19  1  0
  3 20  1  0
 20 21  2  0
 21 22  1  0
 22 23  1  0
 23 24  2  0
 24 25  1  0
 25 26  2  0
 26 27  1  0
 27 28  2  0
 19  9  1  0
 28 20  1  0
 17 12  1  0
 27 22  1  0
  1 29  1  0
  1 30  1  0
  1 31  1  0
  2 32  1  0
  2 33  1  0
  3 34  1  0
  4 35  1  0
  7 36  1  0
  7 37  1  0
  8 38  1  0
  8 39  1  0
 13 40  1  0
 14 41  1  0
 16 42  1  0
 17 43  1  0
 21 44  1  0
 23 45  1  0
 24 46  1  0
 25 47  1  0
M  END
>  <Energy>  (1155) 
1151.9802115057912

>  <compound_id>  (1155) 
17706

>  <target_id>  (1155) 
1

>  <reference_id>  (1155) 
107

>  <inspiration_ids>  (1155) 
[107, 56]

>  <energy_score>  (1155) 
1096.4871451538406

>  <distance_score>  (1155) 
8.293595711829147

>  <path>  (1155) 
/opt/xchem-fragalysis-2/maxwin/BulkDock/SCRATCH/511014/C17706-P107/C17706-P107.minimised.mol

>  <scratch_subdir>  (1155) 
/opt/xchem-fragalysis-2/maxwin/BulkDock/SCRATCH/511014/C17706-P107

>  <fragmenstein_runtime>  (1155) 
19.405604124069214

>  <fragmenstein_outcome>  (1155) 
too moved

>  <fragmenstein_mode>  (1155) 
expansion

>  <fragmenstein_error>  (1155) 


$$$$
C17706-P56
     RDKit          3D

 47 50  0  0  0  0  0  0  0  0999 V2000
   -2.6059  -15.1207   33.4538 C   0  0  0  0  0  0  0  0  0  0  0  0
   -3.4450  -14.4451   34.4982 C   0  0  0  0  0  0  0  0  0  0  0  0
   -4.3822  -13.6475   35.2508 C   0  0  0  0  0  0  0  0  0  0  0  0
   -3.3828  -11.8752   35.1929 N   0  0  0  0  0  0  0  0  0  0  0  0
   -3.9268  -10.2253   35.3044 C   0  0  0  0  0  0  0  0  0  0  0  0
   -5.0326   -9.7670   35.5362 O   0  0  0  0  0  0  0  0  0  0  0  0
   -2.5993   -9.4562   34.9014 C   0  0  0  0  0  0  0  0  0  0  0  0
   -2.1612   -8.1388   35.4438 C   0  0  0  0  0  0  0  0  0  0  0  0
   -1.0058   -7.5188   34.7807 C   0  0  0  0  0  0  0  0  0  0  0  0
   -0.8088   -7.3486   33.5022 N   0  0  0  0  0  0  0  0  0  0  0  0
    0.2063   -6.4213   33.4915 C   0  0  0  0  0  0  0  0  0  0  0  0
    0.5998   -5.7833   32.2531 C   0  0  0  0  0  0  0  0  0  0  0  0
    1.6280   -4.8462   32.2140 C   0  0  0  0  0  0  0  0  0  0  0  0
    1.9078   -4.2421   31.0043 C   0  0  0  0  0  0  0  0  0  0  0  0
    1.2438   -4.5043   29.8591 N   0  0  0  0  0  0  0  0  0  0  0  0
    0.2556   -5.4198   29.9233 C   0  0  0  0  0  0  0  0  0  0  0  0
   -0.0951   -6.0835   31.0794 C   0  0  0  0  0  0  0  0  0  0  0  0
    0.6925   -6.1243   34.7089 N   0  0  0  0  0  0  0  0  0  0  0  0
   -0.1241   -6.8475   35.5707 O   0  0  0  0  0  0  0  0  0  0  0  0
   -5.6739  -15.0824   34.5507 C   0  0  0  0  0  0  0  0  0  0  0  0
   -5.9956  -16.0575   33.5285 C   0  0  0  0  0  0  0  0  0  0  0  0
   -7.0709  -16.7875   33.9413 N   0  0  0  0  0  0  0  0  0  0  0  0
   -7.4637  -17.9845   33.5191 C   0  0  0  0  0  0  0  0  0  0  0  0
   -8.7079  -18.3380   33.8059 C   0  0  0  0  0  0  0  0  0  0  0  0
   -9.5089  -17.3274   34.5905 C   0  0  0  0  0  0  0  0  0  0  0  0
   -8.9413  -16.4919   35.3817 N   0  0  0  0  0  0  0  0  0  0  0  0
   -7.6726  -16.2469   35.0124 C   0  0  0  0  0  0  0  0  0  0  0  0
   -6.7912  -15.4832   35.5308 N   0  0  0  0  0  0  0  0  0  0  0  0
   -1.7591  -14.5856   33.0368 H   0  0  0  0  0  0  0  0  0  0  0  0
   -3.0323  -15.8380   32.7163 H   0  0  0  0  0  0  0  0  0  0  0  0
   -2.2261  -15.7495   34.2516 H   0  0  0  0  0  0  0  0  0  0  0  0
   -3.2732  -15.0268   35.3708 H   0  0  0  0  0  0  0  0  0  0  0  0
   -4.1048  -14.6480   33.7712 H   0  0  0  0  0  0  0  0  0  0  0  0
   -4.1990  -14.0010   36.2816 H   0  0  0  0  0  0  0  0  0  0  0  0
   -2.4112  -11.8931   34.9011 H   0  0  0  0  0  0  0  0  0  0  0  0
   -2.8441   -9.2305   33.8455 H   0  0  0  0  0  0  0  0  0  0  0  0
   -1.7459  -10.1167   34.7387 H   0  0  0  0  0  0  0  0  0  0  0  0
   -1.9334   -8.2227   36.4937 H   0  0  0  0  0  0  0  0  0  0  0  0
   -2.9703   -7.4547   35.2198 H   0  0  0  0  0  0  0  0  0  0  0  0
    2.1972   -4.5885   33.1011 H   0  0  0  0  0  0  0  0  0  0  0  0
    2.6965   -3.4998   30.9229 H   0  0  0  0  0  0  0  0  0  0  0  0
   -0.2559   -5.6141   28.9845 H   0  0  0  0  0  0  0  0  0  0  0  0
   -0.8910   -6.8181   31.0614 H   0  0  0  0  0  0  0  0  0  0  0  0
   -5.4708  -16.4166   32.6621 H   0  0  0  0  0  0  0  0  0  0  0  0
   -6.7323  -18.4867   32.9249 H   0  0  0  0  0  0  0  0  0  0  0  0
   -9.1823  -19.2293   33.4300 H   0  0  0  0  0  0  0  0  0  0  0  0
  -10.5897  -17.5110   34.6949 H   0  0  0  0  0  0  0  0  0  0  0  0
  1  2  1  0
  2  3  1  0
  3  4  1  0
  4  5  1  0
  5  6  2  0
  5  7  1  0
  7  8  1  0
  8  9  1  0
  9 10  2  0
 10 11  1  0
 11 12  1  0
 12 13  2  0
 13 14  1  0
 14 15  2  0
 15 16  1  0
 16 17  2  0
 11 18  2  0
 18 19  1  0
  3 20  1  0
 20 21  2  0
 21 22  1  0
 22 23  1  0
 23 24  2  0
 24 25  1  0
 25 26  2  0
 26 27  1  0
 27 28  2  0
 19  9  1  0
 28 20  1  0
 17 12  1  0
 27 22  1  0
  1 29  1  0
  1 30  1  0
  1 31  1  0
  2 32  1  0
  2 33  1  0
  3 34  1  0
  4 35  1  0
  7 36  1  0
  7 37  1  0
  8 38  1  0
  8 39  1  0
 13 40  1  0
 14 41  1  0
 16 42  1  0
 17 43  1  0
 21 44  1  0
 23 45  1  0
 24 46  1  0
 25 47  1  0
M  END
>  <Energy>  (1156) 
476.69133644206153

>  <compound_id>  (1156) 
17706

>  <target_id>  (1156) 
1

>  <reference_id>  (1156) 
56

>  <inspiration_ids>  (1156) 
[107, 56]

>  <energy_score>  (1156) 
421.1982700900919

>  <distance_score>  (1156) 
7.163588354328331

>  <path>  (1156) 
/opt/xchem-fragalysis-2/maxwin/BulkDock/SCRATCH/511014/C17706-P56/C17706-P56.minimised.mol

>  <scratch_subdir>  (1156) 
/opt/xchem-fragalysis-2/maxwin/BulkDock/SCRATCH/511014/C17706-P56

>  <fragmenstein_runtime>  (1156) 
16.0301616191864

>  <fragmenstein_outcome>  (1156) 
too moved

>  <fragmenstein_mode>  (1156) 
expansion

>  <fragmenstein_error>  (1156) 


$$$$
C9234-P103
     RDKit          3D

 48 51  0  0  0  0  0  0  0  0999 V2000
   -4.9632   -6.0526   11.7119 O   0  0  0  0  0  0  0  0  0  0  0  0
   -3.8653   -5.8588   11.3390 C   0  0  0  0  0  0  0  0  0  0  0  0
   -3.6352   -5.5627    9.6201 C   0  0  0  0  0  0  0  0  0  0  0  0
   -3.6088   -4.0865    7.8849 S   0  0  0  0  0  0  0  0  0  0  0  0
   -5.2330   -3.2240    7.2363 C   0  0  0  0  0  0  0  0  0  0  0  0
   -6.6520   -3.7904    7.0105 C   0  0  0  0  0  0  0  0  0  0  0  0
   -7.6336   -2.7031    6.8866 N   0  0  0  0  0  0  0  0  0  0  0  0
   -7.6099   -1.9846    5.6157 C   0  0  0  0  0  0  0  0  0  0  0  0
   -8.9947   -1.3510    5.5089 C   0  0  0  0  0  0  0  0  0  0  0  0
   -9.8303   -2.0221    6.5885 C   0  0  0  0  0  0  0  0  0  0  0  0
   -8.9966   -3.2107    7.0135 C   0  0  0  0  0  0  0  0  0  0  0  0
   -2.3868   -5.6923   12.1940 N   0  0  0  0  0  0  0  0  0  0  0  0
   -1.9005   -5.5647   14.2226 C   0  0  0  0  0  0  0  0  0  0  0  0
   -0.7939   -6.5068   13.8697 C   0  0  0  0  0  0  0  0  0  0  0  0
    0.7180   -5.8372   14.4343 C   0  0  0  0  0  0  0  0  0  0  0  0
    1.6478   -5.8366   13.5187 N   0  0  0  0  0  0  0  0  0  0  0  0
    2.4789   -4.8598   13.9008 C   0  0  0  0  0  0  0  0  0  0  0  0
    3.0753   -4.0163   12.9683 C   0  0  0  0  0  0  0  0  0  0  0  0
    4.0660   -3.1394   13.4045 C   0  0  0  0  0  0  0  0  0  0  0  0
    4.9181   -3.3285   14.9664 C   0  0  0  0  0  0  0  0  0  0  0  0
    3.8893   -4.2377   15.9760 C   0  0  0  0  0  0  0  0  0  0  0  0
    2.6635   -4.8654   15.2933 C   0  0  0  0  0  0  0  0  0  0  0  0
    1.4094   -5.4847   15.6370 N   0  0  0  0  0  0  0  0  0  0  0  0
   -2.2522   -5.9001   13.4807 C   0  0  0  0  0  0  0  0  0  0  0  0
   -2.7030   -6.0902    9.5908 H   0  0  0  0  0  0  0  0  0  0  0  0
   -3.5605   -4.5812    9.9717 H   0  0  0  0  0  0  0  0  0  0  0  0
   -5.2669   -2.2291    7.7002 H   0  0  0  0  0  0  0  0  0  0  0  0
   -4.9015   -3.0147    6.2326 H   0  0  0  0  0  0  0  0  0  0  0  0
   -6.9570   -4.4099    7.8558 H   0  0  0  0  0  0  0  0  0  0  0  0
   -6.6851   -4.4325    6.1238 H   0  0  0  0  0  0  0  0  0  0  0  0
   -7.4570   -2.6609    4.7659 H   0  0  0  0  0  0  0  0  0  0  0  0
   -6.8334   -1.2156    5.6047 H   0  0  0  0  0  0  0  0  0  0  0  0
   -8.9568   -0.2686    5.6731 H   0  0  0  0  0  0  0  0  0  0  0  0
   -9.4224   -1.5266    4.5158 H   0  0  0  0  0  0  0  0  0  0  0  0
  -10.8196   -2.3159    6.2258 H   0  0  0  0  0  0  0  0  0  0  0  0
   -9.9711   -1.3323    7.4297 H   0  0  0  0  0  0  0  0  0  0  0  0
   -9.2007   -3.5073    8.0432 H   0  0  0  0  0  0  0  0  0  0  0  0
   -9.1788   -4.0631    6.3471 H   0  0  0  0  0  0  0  0  0  0  0  0
   -2.5482   -5.7611   15.2314 H   0  0  0  0  0  0  0  0  0  0  0  0
   -1.5290   -4.4509   14.3865 H   0  0  0  0  0  0  0  0  0  0  0  0
   -0.8604   -7.5070   14.3179 H   0  0  0  0  0  0  0  0  0  0  0  0
    2.9195   -4.1750   11.9061 H   0  0  0  0  0  0  0  0  0  0  0  0
    4.7340   -2.8896   12.5578 H   0  0  0  0  0  0  0  0  0  0  0  0
    5.8713   -2.8435   15.0767 H   0  0  0  0  0  0  0  0  0  0  0  0
    4.0241   -4.3457   17.0399 H   0  0  0  0  0  0  0  0  0  0  0  0
    1.0448   -5.5730   16.5730 H   0  0  0  0  0  0  0  0  0  0  0  0
   -2.6312   -7.0770   13.3507 H   0  0  0  0  0  0  0  0  0  0  0  0
   -3.5233   -5.9695   13.8115 H   0  0  0  0  0  0  0  0  0  0  0  0
  1  2  2  0
  2  3  1  0
  3  4  1  0
  4  5  1  0
  5  6  1  0
  6  7  1  0
  7  8  1  0
  8  9  1  0
  9 10  1  0
 10 11  1  0
  2 12  1  0
 12 13  1  0
 13 14  1  0
 14 15  1  0
 15 16  2  0
 16 17  1  0
 17 18  2  0
 18 19  1  0
 19 20  2  0
 20 21  1  0
 21 22  2  0
 22 23  1  0
 14 24  1  0
 11  7  1  0
 24 12  1  0
 23 15  1  0
 22 17  1  0
  3 25  1  0
  3 26  1  0
  5 27  1  0
  5 28  1  0
  6 29  1  0
  6 30  1  0
  8 31  1  0
  8 32  1  0
  9 33  1  0
  9 34  1  0
 10 35  1  0
 10 36  1  0
 11 37  1  0
 11 38  1  0
 13 39  1  0
 13 40  1  0
 14 41  1  0
 18 42  1  0
 19 43  1  0
 20 44  1  0
 21 45  1  0
 23 46  1  0
 24 47  1  0
 24 48  1  0
M  END
>  <Energy>  (1157) 
1019.2852470805391

>  <compound_id>  (1157) 
9234

>  <target_id>  (1157) 
1

>  <reference_id>  (1157) 
103

>  <inspiration_ids>  (1157) 
[103, 95]

>  <energy_score>  (1157) 
903.4348788307357

>  <distance_score>  (1157) 
9.520538876823176

>  <path>  (1157) 
/opt/xchem-fragalysis-2/maxwin/BulkDock/SCRATCH/511014/C9234-P103/C9234-P103.minimised.mol

>  <scratch_subdir>  (1157) 
/opt/xchem-fragalysis-2/maxwin/BulkDock/SCRATCH/511014/C9234-P103

>  <fragmenstein_runtime>  (1157) 
12.669254779815674

>  <fragmenstein_outcome>  (1157) 
too moved

>  <fragmenstein_mode>  (1157) 
expansion

>  <fragmenstein_error>  (1157) 


$$$$
C9234-P95
     RDKit          3D

 48 51  0  0  0  0  0  0  0  0999 V2000
    3.8300   -3.7298   12.2629 O   0  0  0  0  0  0  0  0  0  0  0  0
    4.2124   -2.7150   11.7334 C   0  0  0  0  0  0  0  0  0  0  0  0
    2.9043   -2.1313   10.4160 C   0  0  0  0  0  0  0  0  0  0  0  0
    0.6194   -1.3972   10.0201 S   0  0  0  0  0  0  0  0  0  0  0  0
   -1.5883   -1.3838    8.7991 C   0  0  0  0  0  0  0  0  0  0  0  0
   -3.0928   -2.0718    8.4092 C   0  0  0  0  0  0  0  0  0  0  0  0
   -3.8302   -1.5420    7.1946 N   0  0  0  0  0  0  0  0  0  0  0  0
   -5.0328   -0.7685    7.5901 C   0  0  0  0  0  0  0  0  0  0  0  0
   -5.8776   -0.6998    6.3234 C   0  0  0  0  0  0  0  0  0  0  0  0
   -5.4324   -1.9012    5.5047 C   0  0  0  0  0  0  0  0  0  0  0  0
   -4.4331   -2.6196    6.3967 C   0  0  0  0  0  0  0  0  0  0  0  0
    5.7180   -1.6262   12.1057 N   0  0  0  0  0  0  0  0  0  0  0  0
    7.0747   -1.8283   13.7440 C   0  0  0  0  0  0  0  0  0  0  0  0
    7.6893   -0.6538   13.1095 C   0  0  0  0  0  0  0  0  0  0  0  0
    8.9014   -0.2808   14.2186 C   0  0  0  0  0  0  0  0  0  0  0  0
    9.6169    0.8269   14.1156 N   0  0  0  0  0  0  0  0  0  0  0  0
   10.8959    0.4562   14.4878 C   0  0  0  0  0  0  0  0  0  0  0  0
   12.1118    1.1341   14.3406 C   0  0  0  0  0  0  0  0  0  0  0  0
   13.3002    0.4550   14.6567 C   0  0  0  0  0  0  0  0  0  0  0  0
   13.2833   -0.8530   15.1485 C   0  0  0  0  0  0  0  0  0  0  0  0
   12.0799   -1.5330   15.3359 C   0  0  0  0  0  0  0  0  0  0  0  0
   10.9183   -0.8371   14.9910 C   0  0  0  0  0  0  0  0  0  0  0  0
    9.6050   -1.2265   14.9485 N   0  0  0  0  0  0  0  0  0  0  0  0
    6.6763   -1.7712   12.8989 C   0  0  0  0  0  0  0  0  0  0  0  0
    3.1848   -2.5980    9.4786 H   0  0  0  0  0  0  0  0  0  0  0  0
    2.6844   -1.2572   10.9899 H   0  0  0  0  0  0  0  0  0  0  0  0
   -1.4944   -1.4291    7.6854 H   0  0  0  0  0  0  0  0  0  0  0  0
   -2.0387   -0.3852    8.8667 H   0  0  0  0  0  0  0  0  0  0  0  0
   -3.0194   -3.1450    8.2824 H   0  0  0  0  0  0  0  0  0  0  0  0
   -3.7918   -1.8063    9.1750 H   0  0  0  0  0  0  0  0  0  0  0  0
   -5.6265   -1.2914    8.3497 H   0  0  0  0  0  0  0  0  0  0  0  0
   -4.7910    0.2163    7.9948 H   0  0  0  0  0  0  0  0  0  0  0  0
   -5.6946    0.2243    5.7654 H   0  0  0  0  0  0  0  0  0  0  0  0
   -6.9464   -0.7447    6.5568 H   0  0  0  0  0  0  0  0  0  0  0  0
   -4.9508   -1.5631    4.5795 H   0  0  0  0  0  0  0  0  0  0  0  0
   -6.2724   -2.5475    5.2318 H   0  0  0  0  0  0  0  0  0  0  0  0
   -4.9714   -3.3358    7.0242 H   0  0  0  0  0  0  0  0  0  0  0  0
   -3.6944   -3.1571    5.8082 H   0  0  0  0  0  0  0  0  0  0  0  0
    7.7619   -2.7364   13.9519 H   0  0  0  0  0  0  0  0  0  0  0  0
    6.6266   -1.5954   14.7836 H   0  0  0  0  0  0  0  0  0  0  0  0
    7.7759   -0.2005   12.1317 H   0  0  0  0  0  0  0  0  0  0  0  0
   12.1315    2.1415   13.9417 H   0  0  0  0  0  0  0  0  0  0  0  0
   14.2537    0.9612   14.5213 H   0  0  0  0  0  0  0  0  0  0  0  0
   14.2224   -1.3494   15.3861 H   0  0  0  0  0  0  0  0  0  0  0  0
   12.0607   -2.5568   15.6962 H   0  0  0  0  0  0  0  0  0  0  0  0
    9.3486   -2.1940   15.0216 H   0  0  0  0  0  0  0  0  0  0  0  0
    5.7735   -2.6483   13.5409 H   0  0  0  0  0  0  0  0  0  0  0  0
    5.9503   -0.7587   13.1051 H   0  0  0  0  0  0  0  0  0  0  0  0
  1  2  2  0
  2  3  1  0
  3  4  1  0
  4  5  1  0
  5  6  1  0
  6  7  1  0
  7  8  1  0
  8  9  1  0
  9 10  1  0
 10 11  1  0
  2 12  1  0
 12 13  1  0
 13 14  1  0
 14 15  1  0
 15 16  2  0
 16 17  1  0
 17 18  2  0
 18 19  1  0
 19 20  2  0
 20 21  1  0
 21 22  2  0
 22 23  1  0
 14 24  1  0
 11  7  1  0
 24 12  1  0
 23 15  1  0
 22 17  1  0
  3 25  1  0
  3 26  1  0
  5 27  1  0
  5 28  1  0
  6 29  1  0
  6 30  1  0
  8 31  1  0
  8 32  1  0
  9 33  1  0
  9 34  1  0
 10 35  1  0
 10 36  1  0
 11 37  1  0
 11 38  1  0
 13 39  1  0
 13 40  1  0
 14 41  1  0
 18 42  1  0
 19 43  1  0
 20 44  1  0
 21 45  1  0
 23 46  1  0
 24 47  1  0
 24 48  1  0
M  END
>  <Energy>  (1158) 
1379.8998861294401

>  <compound_id>  (1158) 
9234

>  <target_id>  (1158) 
1

>  <reference_id>  (1158) 
95

>  <inspiration_ids>  (1158) 
[103, 95]

>  <energy_score>  (1158) 
1264.0495178796552

>  <distance_score>  (1158) 
6.071634302174667

>  <path>  (1158) 
/opt/xchem-fragalysis-2/maxwin/BulkDock/SCRATCH/511014/C9234-P95/C9234-P95.minimised.mol

>  <scratch_subdir>  (1158) 
/opt/xchem-fragalysis-2/maxwin/BulkDock/SCRATCH/511014/C9234-P95

>  <fragmenstein_runtime>  (1158) 
15.874918699264526

>  <fragmenstein_outcome>  (1158) 
too moved

>  <fragmenstein_mode>  (1158) 
expansion

>  <fragmenstein_error>  (1158) 


$$$$
C9252-P103
     RDKit          3D

 46 48  0  0  0  0  0  0  0  0999 V2000
   -4.9827    0.3469    6.8027 C   0  0  0  0  0  0  0  0  0  0  0  0
   -3.6846   -0.6817    7.2032 C   0  0  0  0  0  0  0  0  0  0  0  0
   -2.5916   -0.9856    8.7993 C   0  0  0  0  0  0  0  0  0  0  0  0
   -1.3255   -0.5847    8.9566 N   0  0  0  0  0  0  0  0  0  0  0  0
   -2.8281   -1.8496    9.0871 C   0  0  0  0  0  0  0  0  0  0  0  0
   -4.6462   -0.9999    9.1841 C   0  0  0  0  0  0  0  0  0  0  0  0
   -6.0136   -1.3427    8.5965 N   0  0  0  0  0  0  0  0  0  0  0  0
   -7.1244   -0.4058    8.8046 C   0  0  0  0  0  0  0  0  0  0  0  0
   -8.3094   -0.9622    8.0148 C   0  0  0  0  0  0  0  0  0  0  0  0
   -7.8803   -2.3329    7.5261 C   0  0  0  0  0  0  0  0  0  0  0  0
   -6.3582   -2.2400    7.4608 C   0  0  0  0  0  0  0  0  0  0  0  0
    0.4480   -1.3816    9.7508 C   0  0  0  0  0  0  0  0  0  0  0  0
    1.0736   -2.0254    8.7775 O   0  0  0  0  0  0  0  0  0  0  0  0
    1.6946   -1.3164   11.2555 C   0  0  0  0  0  0  0  0  0  0  0  0
    2.8945   -2.8232   11.5394 C   0  0  0  0  0  0  0  0  0  0  0  0
    3.6067   -3.3401   12.8734 C   0  0  0  0  0  0  0  0  0  0  0  0
    5.5940   -2.6777   14.3123 Br  0  0  0  0  0  0  0  0  0  0  0  0
    4.3251   -2.8651   12.0072 C   0  0  0  0  0  0  0  0  0  0  0  0
    4.1716   -1.1776   11.4492 C   0  0  0  0  0  0  0  0  0  0  0  0
    5.0758   -0.4327   10.7824 N   0  0  0  0  0  0  0  0  0  0  0  0
    5.2958   -0.3655   12.0031 C   0  0  0  0  0  0  0  0  0  0  0  0
    4.0797    0.7168   11.4888 N   0  0  0  0  0  0  0  0  0  0  0  0
    2.9162   -0.1283   11.3471 C   0  0  0  0  0  0  0  0  0  0  0  0
   -5.9254   -0.1158    6.5545 H   0  0  0  0  0  0  0  0  0  0  0  0
   -5.1886    1.1458    7.5231 H   0  0  0  0  0  0  0  0  0  0  0  0
   -4.8178    0.8076    5.8171 H   0  0  0  0  0  0  0  0  0  0  0  0
   -4.1311   -1.6704    7.0598 H   0  0  0  0  0  0  0  0  0  0  0  0
   -2.9943   -0.5772    6.3904 H   0  0  0  0  0  0  0  0  0  0  0  0
   -2.8066    0.1258    9.0441 H   0  0  0  0  0  0  0  0  0  0  0  0
   -1.9580   -1.0910    7.7585 H   0  0  0  0  0  0  0  0  0  0  0  0
   -2.8782   -2.5134    8.0151 H   0  0  0  0  0  0  0  0  0  0  0  0
   -2.8954   -2.9412    9.2336 H   0  0  0  0  0  0  0  0  0  0  0  0
   -4.5537    0.0388    8.8762 H   0  0  0  0  0  0  0  0  0  0  0  0
   -4.6186   -0.5972   10.1910 H   0  0  0  0  0  0  0  0  0  0  0  0
   -6.9285    0.6091    8.4537 H   0  0  0  0  0  0  0  0  0  0  0  0
   -7.3626   -0.2946    9.8628 H   0  0  0  0  0  0  0  0  0  0  0  0
   -9.2208   -1.0167    8.6180 H   0  0  0  0  0  0  0  0  0  0  0  0
   -8.5155   -0.3165    7.1526 H   0  0  0  0  0  0  0  0  0  0  0  0
   -8.2065   -3.1045    8.2320 H   0  0  0  0  0  0  0  0  0  0  0  0
   -8.3213   -2.5720    6.5530 H   0  0  0  0  0  0  0  0  0  0  0  0
   -5.8946   -3.2303    7.4898 H   0  0  0  0  0  0  0  0  0  0  0  0
   -6.1224   -1.8891    6.4606 H   0  0  0  0  0  0  0  0  0  0  0  0
    2.6959   -3.6593   10.8266 H   0  0  0  0  0  0  0  0  0  0  0  0
    5.2926   -3.3477   11.9658 H   0  0  0  0  0  0  0  0  0  0  0  0
    4.9239    0.4639   10.3273 H   0  0  0  0  0  0  0  0  0  0  0  0
    6.2224   -0.4268   12.5739 H   0  0  0  0  0  0  0  0  0  0  0  0
  1  2  1  0
  2  3  1  0
  3  4  1  0
  4  5  1  0
  5  6  1  0
  6  7  1  0
  7  8  1  0
  8  9  1  0
  9 10  1  0
 10 11  1  0
  4 12  1  0
 12 13  2  0
 12 14  1  0
 14 15  2  0
 15 16  1  0
 16 17  1  0
 16 18  2  0
 18 19  1  0
 19 20  1  0
 20 21  1  0
 21 22  2  0
 22 23  1  0
 11  7  1  0
 23 14  1  0
 23 19  2  0
  1 24  1  0
  1 25  1  0
  1 26  1  0
  2 27  1  0
  2 28  1  0
  3 29  1  0
  3 30  1  0
  5 31  1  0
  5 32  1  0
  6 33  1  0
  6 34  1  0
  8 35  1  0
  8 36  1  0
  9 37  1  0
  9 38  1  0
 10 39  1  0
 10 40  1  0
 11 41  1  0
 11 42  1  0
 15 43  1  0
 18 44  1  0
 20 45  1  0
 21 46  1  0
M  END
>  <Energy>  (1159) 
1975.7130544764918

>  <compound_id>  (1159) 
9252

>  <target_id>  (1159) 
1

>  <reference_id>  (1159) 
103

>  <inspiration_ids>  (1159) 
[103, 95]

>  <energy_score>  (1159) 
1904.2789724310885

>  <distance_score>  (1159) 
7.852627699753827

>  <path>  (1159) 
/opt/xchem-fragalysis-2/maxwin/BulkDock/SCRATCH/511014/C9252-P103/C9252-P103.minimised.mol

>  <scratch_subdir>  (1159) 
/opt/xchem-fragalysis-2/maxwin/BulkDock/SCRATCH/511014/C9252-P103

>  <fragmenstein_runtime>  (1159) 
9.996500015258789

>  <fragmenstein_outcome>  (1159) 
too moved

>  <fragmenstein_mode>  (1159) 
expansion

>  <fragmenstein_error>  (1159) 


$$$$
C9252-P95
     RDKit          3D

 46 48  0  0  0  0  0  0  0  0999 V2000
   -5.6150   -0.4550    8.8527 C   0  0  0  0  0  0  0  0  0  0  0  0
   -4.2169   -0.0117    8.4910 C   0  0  0  0  0  0  0  0  0  0  0  0
   -2.5304   -0.4914    9.0256 C   0  0  0  0  0  0  0  0  0  0  0  0
   -1.1028   -1.8204    8.6230 N   0  0  0  0  0  0  0  0  0  0  0  0
   -2.4406   -1.2857    8.4733 C   0  0  0  0  0  0  0  0  0  0  0  0
   -3.5954   -2.2226    7.2361 C   0  0  0  0  0  0  0  0  0  0  0  0
   -4.1392   -1.8187    5.8583 N   0  0  0  0  0  0  0  0  0  0  0  0
   -4.6649   -3.0411    5.2148 C   0  0  0  0  0  0  0  0  0  0  0  0
   -5.4166   -2.5879    3.9793 C   0  0  0  0  0  0  0  0  0  0  0  0
   -5.9401   -1.2310    4.3719 C   0  0  0  0  0  0  0  0  0  0  0  0
   -5.3875   -1.0135    5.7769 C   0  0  0  0  0  0  0  0  0  0  0  0
    0.6095   -1.3372    9.6898 C   0  0  0  0  0  0  0  0  0  0  0  0
    1.3203   -0.5562    8.9943 O   0  0  0  0  0  0  0  0  0  0  0  0
    1.7107   -1.8201   11.3049 C   0  0  0  0  0  0  0  0  0  0  0  0
    2.4729   -3.0384   12.6040 C   0  0  0  0  0  0  0  0  0  0  0  0
    3.4817   -3.6195   13.1957 C   0  0  0  0  0  0  0  0  0  0  0  0
    5.2009   -2.6515   14.6515 Br  0  0  0  0  0  0  0  0  0  0  0  0
    3.9470   -4.0540   11.9672 C   0  0  0  0  0  0  0  0  0  0  0  0
    4.4304   -2.8959   11.4953 C   0  0  0  0  0  0  0  0  0  0  0  0
    5.7728   -2.1856   11.9373 N   0  0  0  0  0  0  0  0  0  0  0  0
    5.7088   -0.7805   11.9598 C   0  0  0  0  0  0  0  0  0  0  0  0
    4.3869   -0.3743   11.1042 N   0  0  0  0  0  0  0  0  0  0  0  0
    3.3948   -1.8540   10.9712 C   0  0  0  0  0  0  0  0  0  0  0  0
   -6.3222    0.1255    8.2425 H   0  0  0  0  0  0  0  0  0  0  0  0
   -5.9136   -0.2214    9.8640 H   0  0  0  0  0  0  0  0  0  0  0  0
   -5.8528   -1.4878    8.6410 H   0  0  0  0  0  0  0  0  0  0  0  0
   -4.1901    1.0686    8.6603 H   0  0  0  0  0  0  0  0  0  0  0  0
   -4.1813   -0.0877    7.4391 H   0  0  0  0  0  0  0  0  0  0  0  0
   -2.6808    0.0593    9.9336 H   0  0  0  0  0  0  0  0  0  0  0  0
   -2.2072    0.4694    8.4289 H   0  0  0  0  0  0  0  0  0  0  0  0
   -2.8140   -2.2847    8.9186 H   0  0  0  0  0  0  0  0  0  0  0  0
   -2.1090   -1.0893    7.3622 H   0  0  0  0  0  0  0  0  0  0  0  0
   -3.0800   -3.1793    7.0998 H   0  0  0  0  0  0  0  0  0  0  0  0
   -4.4803   -2.4870    7.7933 H   0  0  0  0  0  0  0  0  0  0  0  0
   -3.8738   -3.7227    4.9468 H   0  0  0  0  0  0  0  0  0  0  0  0
   -5.3701   -3.5501    5.8863 H   0  0  0  0  0  0  0  0  0  0  0  0
   -4.7460   -2.4936    3.1181 H   0  0  0  0  0  0  0  0  0  0  0  0
   -6.2181   -3.2838    3.7116 H   0  0  0  0  0  0  0  0  0  0  0  0
   -7.0343   -1.1924    4.3608 H   0  0  0  0  0  0  0  0  0  0  0  0
   -5.5660   -0.4674    3.6796 H   0  0  0  0  0  0  0  0  0  0  0  0
   -5.2691    0.0615    5.8982 H   0  0  0  0  0  0  0  0  0  0  0  0
   -6.1425   -1.3773    6.4809 H   0  0  0  0  0  0  0  0  0  0  0  0
    1.9176   -4.0434   12.7138 H   0  0  0  0  0  0  0  0  0  0  0  0
    4.3706   -5.0129   11.7551 H   0  0  0  0  0  0  0  0  0  0  0  0
    6.5449   -2.3525   11.3224 H   0  0  0  0  0  0  0  0  0  0  0  0
    6.6062   -0.2826   12.2568 H   0  0  0  0  0  0  0  0  0  0  0  0
  1  2  1  0
  2  3  1  0
  3  4  1  0
  4  5  1  0
  5  6  1  0
  6  7  1  0
  7  8  1  0
  8  9  1  0
  9 10  1  0
 10 11  1  0
  4 12  1  0
 12 13  2  0
 12 14  1  0
 14 15  2  0
 15 16  1  0
 16 17  1  0
 16 18  2  0
 18 19  1  0
 19 20  1  0
 20 21  1  0
 21 22  2  0
 22 23  1  0
 11  7  1  0
 23 14  1  0
 23 19  2  0
  1 24  1  0
  1 25  1  0
  1 26  1  0
  2 27  1  0
  2 28  1  0
  3 29  1  0
  3 30  1  0
  5 31  1  0
  5 32  1  0
  6 33  1  0
  6 34  1  0
  8 35  1  0
  8 36  1  0
  9 37  1  0
  9 38  1  0
 10 39  1  0
 10 40  1  0
 11 41  1  0
 11 42  1  0
 15 43  1  0
 18 44  1  0
 20 45  1  0
 21 46  1  0
M  END
>  <Energy>  (1160) 
1561.911614024239

>  <compound_id>  (1160) 
9252

>  <target_id>  (1160) 
1

>  <reference_id>  (1160) 
95

>  <inspiration_ids>  (1160) 
[103, 95]

>  <energy_score>  (1160) 
1490.4775319788441

>  <distance_score>  (1160) 
7.92752341166117

>  <path>  (1160) 
/opt/xchem-fragalysis-2/maxwin/BulkDock/SCRATCH/511014/C9252-P95/C9252-P95.minimised.mol

>  <scratch_subdir>  (1160) 
/opt/xchem-fragalysis-2/maxwin/BulkDock/SCRATCH/511014/C9252-P95

>  <fragmenstein_runtime>  (1160) 
10.561022520065308

>  <fragmenstein_outcome>  (1160) 
too moved

>  <fragmenstein_mode>  (1160) 
expansion

>  <fragmenstein_error>  (1160) 


$$$$
C9263-P103
     RDKit          3D

 45 48  0  0  0  0  0  0  0  0999 V2000
   -2.5258    0.3207    9.7069 O   0  0  0  0  0  0  0  0  0  0  0  0
   -1.5894   -0.4760    9.0089 S   0  0  0  0  0  0  0  0  0  0  0  0
   -1.7718   -1.7885    8.4281 O   0  0  0  0  0  0  0  0  0  0  0  0
    0.9282   -0.1340    9.6615 C   0  0  0  0  0  0  0  0  0  0  0  0
    2.2711    0.9116    8.4594 C   0  0  0  0  0  0  0  0  0  0  0  0
    4.1699    1.1043    9.2280 C   0  0  0  0  0  0  0  0  0  0  0  0
    4.3579    0.1344   10.7804 N   0  0  0  0  0  0  0  0  0  0  0  0
    5.6478   -0.7077   11.6893 C   0  0  0  0  0  0  0  0  0  0  0  0
    5.9869   -1.8701   12.4811 N   0  0  0  0  0  0  0  0  0  0  0  0
    7.0589   -1.6555   13.2861 C   0  0  0  0  0  0  0  0  0  0  0  0
    7.4666   -2.0797   14.5595 C   0  0  0  0  0  0  0  0  0  0  0  0
    8.4893   -1.3628   15.2332 C   0  0  0  0  0  0  0  0  0  0  0  0
    9.1849   -0.3046   14.6927 C   0  0  0  0  0  0  0  0  0  0  0  0
    8.8550    0.0722   13.4034 C   0  0  0  0  0  0  0  0  0  0  0  0
    7.7173   -0.6180   12.7011 C   0  0  0  0  0  0  0  0  0  0  0  0
    7.0485   -0.6971   11.4431 N   0  0  0  0  0  0  0  0  0  0  0  0
    3.3087    1.0908   11.3041 C   0  0  0  0  0  0  0  0  0  0  0  0
    2.2173    1.3947    9.9134 C   0  0  0  0  0  0  0  0  0  0  0  0
   -3.0059   -0.3952    7.8351 N   0  0  0  0  0  0  0  0  0  0  0  0
   -4.2827    0.4663    8.3626 C   0  0  0  0  0  0  0  0  0  0  0  0
   -5.4419    0.1985    7.4215 C   0  0  0  0  0  0  0  0  0  0  0  0
   -5.4218   -1.2960    7.4442 C   0  0  0  0  0  0  0  0  0  0  0  0
   -3.9841   -1.6518    7.8786 C   0  0  0  0  0  0  0  0  0  0  0  0
    1.3188   -1.1062    9.9891 H   0  0  0  0  0  0  0  0  0  0  0  0
    2.0770    1.9024    7.9568 H   0  0  0  0  0  0  0  0  0  0  0  0
    2.4132    0.3192    7.5177 H   0  0  0  0  0  0  0  0  0  0  0  0
    4.3191    2.1674    9.4963 H   0  0  0  0  0  0  0  0  0  0  0  0
    4.9668    0.9739    8.5162 H   0  0  0  0  0  0  0  0  0  0  0  0
    6.9058   -2.8531   15.0459 H   0  0  0  0  0  0  0  0  0  0  0  0
    8.7663   -1.5945   16.2320 H   0  0  0  0  0  0  0  0  0  0  0  0
    9.9910    0.1821   15.2305 H   0  0  0  0  0  0  0  0  0  0  0  0
    9.4979    0.8116   12.9384 H   0  0  0  0  0  0  0  0  0  0  0  0
    7.2379   -0.1642   10.6491 H   0  0  0  0  0  0  0  0  0  0  0  0
    2.6833    0.8874   12.1747 H   0  0  0  0  0  0  0  0  0  0  0  0
    3.8162    2.0360   11.5648 H   0  0  0  0  0  0  0  0  0  0  0  0
    2.5037    2.4414   10.2752 H   0  0  0  0  0  0  0  0  0  0  0  0
    1.6120    2.3153    9.5579 H   0  0  0  0  0  0  0  0  0  0  0  0
   -4.6106    0.0809    9.3346 H   0  0  0  0  0  0  0  0  0  0  0  0
   -3.9962    1.5005    8.4833 H   0  0  0  0  0  0  0  0  0  0  0  0
   -6.3826    0.6107    7.7982 H   0  0  0  0  0  0  0  0  0  0  0  0
   -5.2859    0.5780    6.4093 H   0  0  0  0  0  0  0  0  0  0  0  0
   -6.1488   -1.6363    8.1821 H   0  0  0  0  0  0  0  0  0  0  0  0
   -5.7470   -1.7555    6.5122 H   0  0  0  0  0  0  0  0  0  0  0  0
   -4.0351   -1.7288    8.9500 H   0  0  0  0  0  0  0  0  0  0  0  0
   -3.6740   -2.6260    7.5204 H   0  0  0  0  0  0  0  0  0  0  0  0
  1  2  2  0
  2  3  2  0
  2  4  1  0
  4  5  1  0
  5  6  1  0
  6  7  1  0
  7  8  1  0
  8  9  2  0
  9 10  1  0
 10 11  2  0
 11 12  1  0
 12 13  2  0
 13 14  1  0
 14 15  2  0
 15 16  1  0
  7 17  1  0
 17 18  1  0
  2 19  1  0
 19 20  1  0
 20 21  1  0
 21 22  1  0
 22 23  1  0
 18  4  1  0
 23 19  1  0
 16  8  1  0
 15 10  1  0
  4 24  1  0
  5 25  1  0
  5 26  1  0
  6 27  1  0
  6 28  1  0
 11 29  1  0
 12 30  1  0
 13 31  1  0
 14 32  1  0
 16 33  1  0
 17 34  1  0
 17 35  1  0
 18 36  1  0
 18 37  1  0
 20 38  1  0
 20 39  1  0
 21 40  1  0
 21 41  1  0
 22 42  1  0
 22 43  1  0
 23 44  1  0
 23 45  1  0
M  END
>  <Energy>  (1161) 
1038.2939525690804

>  <compound_id>  (1161) 
9263

>  <target_id>  (1161) 
1

>  <reference_id>  (1161) 
103

>  <inspiration_ids>  (1161) 
[103, 95]

>  <energy_score>  (1161) 
1066.2355603973012

>  <distance_score>  (1161) 
6.8928363463674955

>  <path>  (1161) 
/opt/xchem-fragalysis-2/maxwin/BulkDock/SCRATCH/511014/C9263-P103/C9263-P103.minimised.mol

>  <scratch_subdir>  (1161) 
/opt/xchem-fragalysis-2/maxwin/BulkDock/SCRATCH/511014/C9263-P103

>  <fragmenstein_runtime>  (1161) 
10.506598472595215

>  <fragmenstein_outcome>  (1161) 
too moved

>  <fragmenstein_mode>  (1161) 
expansion

>  <fragmenstein_error>  (1161) 


$$$$
C9263-P95
     RDKit          3D

 45 48  0  0  0  0  0  0  0  0999 V2000
    1.5184   -1.4852   11.1060 O   0  0  0  0  0  0  0  0  0  0  0  0
    1.5980   -0.8710    9.7575 S   0  0  0  0  0  0  0  0  0  0  0  0
    1.4343   -1.8979    8.6078 O   0  0  0  0  0  0  0  0  0  0  0  0
    3.6960    0.5006   10.8120 C   0  0  0  0  0  0  0  0  0  0  0  0
    4.7240    2.4755   11.0898 C   0  0  0  0  0  0  0  0  0  0  0  0
    6.6917    3.4618   11.6123 C   0  0  0  0  0  0  0  0  0  0  0  0
    8.3999    2.0875   12.1557 N   0  0  0  0  0  0  0  0  0  0  0  0
    9.6686    2.1017   12.7801 C   0  0  0  0  0  0  0  0  0  0  0  0
   10.2337    0.9914   13.1797 N   0  0  0  0  0  0  0  0  0  0  0  0
   11.4887    1.3052   13.5799 C   0  0  0  0  0  0  0  0  0  0  0  0
   12.5128    0.4525   14.0103 C   0  0  0  0  0  0  0  0  0  0  0  0
   13.7587    1.0098   14.2926 C   0  0  0  0  0  0  0  0  0  0  0  0
   13.9598    2.3877   14.1717 C   0  0  0  0  0  0  0  0  0  0  0  0
   12.9275    3.2571   13.7800 C   0  0  0  0  0  0  0  0  0  0  0  0
   11.6966    2.6737   13.4751 C   0  0  0  0  0  0  0  0  0  0  0  0
   10.4893    3.1717   13.0106 N   0  0  0  0  0  0  0  0  0  0  0  0
    7.4926    0.2140   12.1506 C   0  0  0  0  0  0  0  0  0  0  0  0
    5.4879   -0.3860   11.8049 C   0  0  0  0  0  0  0  0  0  0  0  0
   -0.8396   -1.0657    9.4036 N   0  0  0  0  0  0  0  0  0  0  0  0
   -2.3179    0.0774    8.6864 C   0  0  0  0  0  0  0  0  0  0  0  0
   -3.7757   -0.3318    8.7604 C   0  0  0  0  0  0  0  0  0  0  0  0
   -3.6009   -1.4758    7.9100 C   0  0  0  0  0  0  0  0  0  0  0  0
   -2.1368   -1.9200    8.2086 C   0  0  0  0  0  0  0  0  0  0  0  0
    2.9608    0.8504   11.5787 H   0  0  0  0  0  0  0  0  0  0  0  0
    4.5091    2.9549   10.1201 H   0  0  0  0  0  0  0  0  0  0  0  0
    4.0699    2.9329   11.8481 H   0  0  0  0  0  0  0  0  0  0  0  0
    6.8309    4.0098   10.6532 H   0  0  0  0  0  0  0  0  0  0  0  0
    6.7182    4.3691   12.2817 H   0  0  0  0  0  0  0  0  0  0  0  0
   12.3374   -0.6151   14.0831 H   0  0  0  0  0  0  0  0  0  0  0  0
   14.5764    0.3668   14.6092 H   0  0  0  0  0  0  0  0  0  0  0  0
   14.9450    2.7976   14.3877 H   0  0  0  0  0  0  0  0  0  0  0  0
   13.0963    4.3242   13.6860 H   0  0  0  0  0  0  0  0  0  0  0  0
   10.2833    4.1347   12.8003 H   0  0  0  0  0  0  0  0  0  0  0  0
    7.7877   -0.3468   11.3014 H   0  0  0  0  0  0  0  0  0  0  0  0
    7.8604   -0.2541   13.0677 H   0  0  0  0  0  0  0  0  0  0  0  0
    5.4505   -0.1926   12.8427 H   0  0  0  0  0  0  0  0  0  0  0  0
    5.7490   -1.4698   11.9616 H   0  0  0  0  0  0  0  0  0  0  0  0
   -2.4459    1.1335    8.8488 H   0  0  0  0  0  0  0  0  0  0  0  0
   -2.1238    0.0785    7.6282 H   0  0  0  0  0  0  0  0  0  0  0  0
   -4.2459   -0.4908    9.7169 H   0  0  0  0  0  0  0  0  0  0  0  0
   -4.4387    0.3967    8.2835 H   0  0  0  0  0  0  0  0  0  0  0  0
   -3.6912   -1.1999    6.8469 H   0  0  0  0  0  0  0  0  0  0  0  0
   -4.3659   -2.2393    7.9895 H   0  0  0  0  0  0  0  0  0  0  0  0
   -2.5063   -2.8272    8.6339 H   0  0  0  0  0  0  0  0  0  0  0  0
   -1.8071   -1.8010    7.1646 H   0  0  0  0  0  0  0  0  0  0  0  0
  1  2  2  0
  2  3  2  0
  2  4  1  0
  4  5  1  0
  5  6  1  0
  6  7  1  0
  7  8  1  0
  8  9  2  0
  9 10  1  0
 10 11  2  0
 11 12  1  0
 12 13  2  0
 13 14  1  0
 14 15  2  0
 15 16  1  0
  7 17  1  0
 17 18  1  0
  2 19  1  0
 19 20  1  0
 20 21  1  0
 21 22  1  0
 22 23  1  0
 18  4  1  0
 23 19  1  0
 16  8  1  0
 15 10  1  0
  4 24  1  0
  5 25  1  0
  5 26  1  0
  6 27  1  0
  6 28  1  0
 11 29  1  0
 12 30  1  0
 13 31  1  0
 14 32  1  0
 16 33  1  0
 17 34  1  0
 17 35  1  0
 18 36  1  0
 18 37  1  0
 20 38  1  0
 20 39  1  0
 21 40  1  0
 21 41  1  0
 22 42  1  0
 22 43  1  0
 23 44  1  0
 23 45  1  0
M  END
>  <Energy>  (1162) 
1829.9587644117582

>  <compound_id>  (1162) 
9263

>  <target_id>  (1162) 
1

>  <reference_id>  (1162) 
95

>  <inspiration_ids>  (1162) 
[103, 95]

>  <energy_score>  (1162) 
1857.9003722399686

>  <distance_score>  (1162) 
6.615465775243372

>  <path>  (1162) 
/opt/xchem-fragalysis-2/maxwin/BulkDock/SCRATCH/511014/C9263-P95/C9263-P95.minimised.mol

>  <scratch_subdir>  (1162) 
/opt/xchem-fragalysis-2/maxwin/BulkDock/SCRATCH/511014/C9263-P95

>  <fragmenstein_runtime>  (1162) 
15.762624502182007

>  <fragmenstein_outcome>  (1162) 
too moved

>  <fragmenstein_mode>  (1162) 
expansion

>  <fragmenstein_error>  (1162) 


$$$$
C9264-P103
     RDKit          3D

 49 52  0  0  0  0  0  0  0  0999 V2000
    9.2527   -1.3482   15.3408 C   0  0  0  0  0  0  0  0  0  0  0  0
    9.7017   -0.2064   14.7170 C   0  0  0  0  0  0  0  0  0  0  0  0
    9.0876    0.1686   13.5322 C   0  0  0  0  0  0  0  0  0  0  0  0
    7.9178   -0.5903   13.0255 C   0  0  0  0  0  0  0  0  0  0  0  0
    7.1473   -0.7460   11.8405 N   0  0  0  0  0  0  0  0  0  0  0  0
    5.9031   -1.1528   12.1956 C   0  0  0  0  0  0  0  0  0  0  0  0
    4.3460   -0.9847   11.4131 N   0  0  0  0  0  0  0  0  0  0  0  0
    3.0057    0.2299   11.4679 C   0  0  0  0  0  0  0  0  0  0  0  0
    1.3344   -0.6227   12.1518 C   0  0  0  0  0  0  0  0  0  0  0  0
    0.2573   -1.1271   10.5966 C   0  0  0  0  0  0  0  0  0  0  0  0
   -1.3851   -0.7774    9.5635 O   0  0  0  0  0  0  0  0  0  0  0  0
   -2.3385   -1.3910    8.5090 C   0  0  0  0  0  0  0  0  0  0  0  0
   -3.6894   -0.6181    8.2066 C   0  0  0  0  0  0  0  0  0  0  0  0
   -5.0840   -1.1530    8.2563 N   0  0  0  0  0  0  0  0  0  0  0  0
   -5.4572   -2.2108    7.2917 C   0  0  0  0  0  0  0  0  0  0  0  0
   -6.8233   -1.8604    6.7275 C   0  0  0  0  0  0  0  0  0  0  0  0
   -6.8572   -0.3602    6.8151 C   0  0  0  0  0  0  0  0  0  0  0  0
   -6.0835   -0.0781    8.0896 C   0  0  0  0  0  0  0  0  0  0  0  0
    1.5405   -1.7951   10.1427 C   0  0  0  0  0  0  0  0  0  0  0  0
    3.1397   -2.4869   11.1871 C   0  0  0  0  0  0  0  0  0  0  0  0
    6.2774   -2.0777   13.1512 N   0  0  0  0  0  0  0  0  0  0  0  0
    7.4329   -1.6818   13.7424 C   0  0  0  0  0  0  0  0  0  0  0  0
    8.1084   -2.0573   14.9023 C   0  0  0  0  0  0  0  0  0  0  0  0
    9.8897   -1.7331   16.1179 H   0  0  0  0  0  0  0  0  0  0  0  0
   10.6048    0.2948   15.0523 H   0  0  0  0  0  0  0  0  0  0  0  0
    9.5923    0.9338   12.9542 H   0  0  0  0  0  0  0  0  0  0  0  0
    7.2451   -0.2689   10.9728 H   0  0  0  0  0  0  0  0  0  0  0  0
    3.1861    1.2044   11.9992 H   0  0  0  0  0  0  0  0  0  0  0  0
    2.9747    0.6528   10.4496 H   0  0  0  0  0  0  0  0  0  0  0  0
    0.8012   -0.0271   12.8822 H   0  0  0  0  0  0  0  0  0  0  0  0
    1.4104   -1.2799   13.0230 H   0  0  0  0  0  0  0  0  0  0  0  0
    0.5410   -0.2965   10.0671 H   0  0  0  0  0  0  0  0  0  0  0  0
   -1.7857   -1.4090    7.5849 H   0  0  0  0  0  0  0  0  0  0  0  0
   -2.6769   -2.3908    8.7297 H   0  0  0  0  0  0  0  0  0  0  0  0
   -3.6454    0.3078    8.7849 H   0  0  0  0  0  0  0  0  0  0  0  0
   -3.5993   -0.4281    7.1488 H   0  0  0  0  0  0  0  0  0  0  0  0
   -4.6963   -2.3727    6.5575 H   0  0  0  0  0  0  0  0  0  0  0  0
   -5.5292   -3.2262    7.6640 H   0  0  0  0  0  0  0  0  0  0  0  0
   -6.9761   -2.2253    5.7091 H   0  0  0  0  0  0  0  0  0  0  0  0
   -7.6122   -2.2860    7.3601 H   0  0  0  0  0  0  0  0  0  0  0  0
   -7.8768    0.0343    6.8478 H   0  0  0  0  0  0  0  0  0  0  0  0
   -6.3439    0.0838    5.9548 H   0  0  0  0  0  0  0  0  0  0  0  0
   -6.7635   -0.1113    8.9488 H   0  0  0  0  0  0  0  0  0  0  0  0
   -5.6583    0.9277    8.0437 H   0  0  0  0  0  0  0  0  0  0  0  0
    1.3277   -2.2829    9.1664 H   0  0  0  0  0  0  0  0  0  0  0  0
    1.7984   -0.8671    9.6775 H   0  0  0  0  0  0  0  0  0  0  0  0
    3.1389   -3.0984   12.1091 H   0  0  0  0  0  0  0  0  0  0  0  0
    3.4707   -3.2395   10.4806 H   0  0  0  0  0  0  0  0  0  0  0  0
    7.7378   -2.9380   15.3824 H   0  0  0  0  0  0  0  0  0  0  0  0
  1  2  2  0
  2  3  1  0
  3  4  2  0
  4  5  1  0
  5  6  1  0
  6  7  1  0
  7  8  1  0
  8  9  1  0
  9 10  1  0
 10 11  1  0
 11 12  1  0
 12 13  1  0
 13 14  1  0
 14 15  1  0
 15 16  1  0
 16 17  1  0
 17 18  1  0
 10 19  1  0
 19 20  1  0
  6 21  2  0
 21 22  1  0
 22 23  2  0
 23  1  1  0
 22  4  1  0
 20  7  1  0
 18 14  1  0
  1 24  1  0
  2 25  1  0
  3 26  1  0
  5 27  1  0
  8 28  1  0
  8 29  1  0
  9 30  1  0
  9 31  1  0
 10 32  1  0
 12 33  1  0
 12 34  1  0
 13 35  1  0
 13 36  1  0
 15 37  1  0
 15 38  1  0
 16 39  1  0
 16 40  1  0
 17 41  1  0
 17 42  1  0
 18 43  1  0
 18 44  1  0
 19 45  1  0
 19 46  1  0
 20 47  1  0
 20 48  1  0
 23 49  1  0
M  END
>  <Energy>  (1163) 
639.73831532048155

>  <compound_id>  (1163) 
9264

>  <target_id>  (1163) 
1

>  <reference_id>  (1163) 
103

>  <inspiration_ids>  (1163) 
[103, 95]

>  <energy_score>  (1163) 
575.7994029944475

>  <distance_score>  (1163) 
6.784514864440834

>  <path>  (1163) 
/opt/xchem-fragalysis-2/maxwin/BulkDock/SCRATCH/511014/C9264-P103/C9264-P103.minimised.mol

>  <scratch_subdir>  (1163) 
/opt/xchem-fragalysis-2/maxwin/BulkDock/SCRATCH/511014/C9264-P103

>  <fragmenstein_runtime>  (1163) 
9.198097467422485

>  <fragmenstein_outcome>  (1163) 
too moved

>  <fragmenstein_mode>  (1163) 
expansion

>  <fragmenstein_error>  (1163) 


$$$$
C9264-P95
     RDKit          3D

 49 52  0  0  0  0  0  0  0  0999 V2000
    9.7173    0.1183   14.6843 C   0  0  0  0  0  0  0  0  0  0  0  0
    9.3072   -1.0533   15.2910 C   0  0  0  0  0  0  0  0  0  0  0  0
    8.1888   -1.7863   14.8370 C   0  0  0  0  0  0  0  0  0  0  0  0
    7.4802   -1.3160   13.7381 C   0  0  0  0  0  0  0  0  0  0  0  0
    6.3303   -1.6481   13.0387 N   0  0  0  0  0  0  0  0  0  0  0  0
    5.9077   -0.6911   11.9815 C   0  0  0  0  0  0  0  0  0  0  0  0
    4.3633   -0.3280   11.0383 N   0  0  0  0  0  0  0  0  0  0  0  0
    3.3476    1.0698   10.4611 C   0  0  0  0  0  0  0  0  0  0  0  0
    1.7818    0.6061    9.3124 C   0  0  0  0  0  0  0  0  0  0  0  0
    0.5986   -1.0180    9.6633 C   0  0  0  0  0  0  0  0  0  0  0  0
   -1.2990   -1.2111    9.1591 O   0  0  0  0  0  0  0  0  0  0  0  0
   -2.2503   -0.9825    8.0257 C   0  0  0  0  0  0  0  0  0  0  0  0
   -3.6491   -1.6468    8.0433 C   0  0  0  0  0  0  0  0  0  0  0  0
   -4.5653   -1.2990    6.9324 N   0  0  0  0  0  0  0  0  0  0  0  0
   -5.9473   -1.7208    7.1891 C   0  0  0  0  0  0  0  0  0  0  0  0
   -6.6176   -1.4901    5.8496 C   0  0  0  0  0  0  0  0  0  0  0  0
   -5.5301   -1.8279    4.8406 C   0  0  0  0  0  0  0  0  0  0  0  0
   -4.2418   -1.9366    5.6574 C   0  0  0  0  0  0  0  0  0  0  0  0
    1.5471   -1.4869   10.9352 C   0  0  0  0  0  0  0  0  0  0  0  0
    3.1504   -1.7513   10.8743 C   0  0  0  0  0  0  0  0  0  0  0  0
    7.2156   -0.2999   11.7948 N   0  0  0  0  0  0  0  0  0  0  0  0
    7.9421   -0.2523   13.0092 C   0  0  0  0  0  0  0  0  0  0  0  0
    9.0765    0.5085   13.5148 C   0  0  0  0  0  0  0  0  0  0  0  0
   10.6038    0.6442   15.0242 H   0  0  0  0  0  0  0  0  0  0  0  0
    9.9351   -1.4344   16.0851 H   0  0  0  0  0  0  0  0  0  0  0  0
    7.9462   -2.7415   15.2532 H   0  0  0  0  0  0  0  0  0  0  0  0
    5.8234   -2.4484   13.3507 H   0  0  0  0  0  0  0  0  0  0  0  0
    3.9870    1.7202    9.8543 H   0  0  0  0  0  0  0  0  0  0  0  0
    2.9892    1.5558   11.3720 H   0  0  0  0  0  0  0  0  0  0  0  0
    1.8013    0.6178    8.2100 H   0  0  0  0  0  0  0  0  0  0  0  0
    1.4792    1.6603    9.1545 H   0  0  0  0  0  0  0  0  0  0  0  0
   -0.0608   -0.9752   10.5710 H   0  0  0  0  0  0  0  0  0  0  0  0
   -2.4614    0.0784    8.0265 H   0  0  0  0  0  0  0  0  0  0  0  0
   -1.8127   -1.3769    7.1200 H   0  0  0  0  0  0  0  0  0  0  0  0
   -4.1435   -1.3312    8.9602 H   0  0  0  0  0  0  0  0  0  0  0  0
   -3.4803   -2.7243    8.0577 H   0  0  0  0  0  0  0  0  0  0  0  0
   -5.9969   -2.7885    7.4196 H   0  0  0  0  0  0  0  0  0  0  0  0
   -6.4233   -1.1453    7.9884 H   0  0  0  0  0  0  0  0  0  0  0  0
   -7.5102   -2.1092    5.7183 H   0  0  0  0  0  0  0  0  0  0  0  0
   -6.9129   -0.4394    5.7420 H   0  0  0  0  0  0  0  0  0  0  0  0
   -5.7428   -2.7726    4.3285 H   0  0  0  0  0  0  0  0  0  0  0  0
   -5.4581   -1.0403    4.0825 H   0  0  0  0  0  0  0  0  0  0  0  0
   -3.9895   -2.9945    5.7925 H   0  0  0  0  0  0  0  0  0  0  0  0
   -3.4159   -1.4474    5.1386 H   0  0  0  0  0  0  0  0  0  0  0  0
    1.2427   -0.9965   11.9251 H   0  0  0  0  0  0  0  0  0  0  0  0
    0.9022   -2.2240   11.0347 H   0  0  0  0  0  0  0  0  0  0  0  0
    2.7539   -0.7845   11.2445 H   0  0  0  0  0  0  0  0  0  0  0  0
    3.6033   -2.5619   11.4654 H   0  0  0  0  0  0  0  0  0  0  0  0
    9.5207    1.2951   12.9162 H   0  0  0  0  0  0  0  0  0  0  0  0
  1  2  2  0
  2  3  1  0
  3  4  2  0
  4  5  1  0
  5  6  1  0
  6  7  1  0
  7  8  1  0
  8  9  1  0
  9 10  1  0
 10 11  1  0
 11 12  1  0
 12 13  1  0
 13 14  1  0
 14 15  1  0
 15 16  1  0
 16 17  1  0
 17 18  1  0
 10 19  1  0
 19 20  1  0
  6 21  2  0
 21 22  1  0
 22 23  2  0
 23  1  1  0
 22  4  1  0
 20  7  1  0
 18 14  1  0
  1 24  1  0
  2 25  1  0
  3 26  1  0
  5 27  1  0
  8 28  1  0
  8 29  1  0
  9 30  1  0
  9 31  1  0
 10 32  1  0
 12 33  1  0
 12 34  1  0
 13 35  1  0
 13 36  1  0
 15 37  1  0
 15 38  1  0
 16 39  1  0
 16 40  1  0
 17 41  1  0
 17 42  1  0
 18 43  1  0
 18 44  1  0
 19 45  1  0
 19 46  1  0
 20 47  1  0
 20 48  1  0
 23 49  1  0
M  END
>  <Energy>  (1164) 
700.80713112211924

>  <compound_id>  (1164) 
9264

>  <target_id>  (1164) 
1

>  <reference_id>  (1164) 
95

>  <inspiration_ids>  (1164) 
[103, 95]

>  <energy_score>  (1164) 
636.8682187960887

>  <distance_score>  (1164) 
6.81582355650247

>  <path>  (1164) 
/opt/xchem-fragalysis-2/maxwin/BulkDock/SCRATCH/511014/C9264-P95/C9264-P95.minimised.mol

>  <scratch_subdir>  (1164) 
/opt/xchem-fragalysis-2/maxwin/BulkDock/SCRATCH/511014/C9264-P95

>  <fragmenstein_runtime>  (1164) 
12.101585865020752

>  <fragmenstein_outcome>  (1164) 
too moved

>  <fragmenstein_mode>  (1164) 
expansion

>  <fragmenstein_error>  (1164) 


$$$$
C9265-P103
     RDKit          3D

 47 50  0  0  0  0  0  0  0  0999 V2000
   -2.3401    0.4084    9.1231 O   0  0  0  0  0  0  0  0  0  0  0  0
   -1.7342   -0.9031    9.0122 S   0  0  0  0  0  0  0  0  0  0  0  0
   -1.5611   -1.3277    7.6070 O   0  0  0  0  0  0  0  0  0  0  0  0
    0.3914   -1.3300   10.1906 N   0  0  0  0  0  0  0  0  0  0  0  0
    2.1103   -1.1121   11.3800 C   0  0  0  0  0  0  0  0  0  0  0  0
    2.9314   -2.8355   11.4924 C   0  0  0  0  0  0  0  0  0  0  0  0
    4.6714   -3.1423   12.2468 C   0  0  0  0  0  0  0  0  0  0  0  0
    6.3313   -2.0356   12.0379 C   0  0  0  0  0  0  0  0  0  0  0  0
    5.9082   -0.8564   12.5127 N   0  0  0  0  0  0  0  0  0  0  0  0
    6.5935   -1.6399   13.9495 C   0  0  0  0  0  0  0  0  0  0  0  0
    6.8690   -1.0228   15.1315 N   0  0  0  0  0  0  0  0  0  0  0  0
    8.1983   -0.8243   15.4292 C   0  0  0  0  0  0  0  0  0  0  0  0
    8.9282    0.2186   16.0015 C   0  0  0  0  0  0  0  0  0  0  0  0
   10.3277    0.1260   15.9453 C   0  0  0  0  0  0  0  0  0  0  0  0
   10.9613   -1.0443   15.5201 C   0  0  0  0  0  0  0  0  0  0  0  0
   10.2131   -2.1163   15.0312 C   0  0  0  0  0  0  0  0  0  0  0  0
    8.8228   -1.8991   14.9351 C   0  0  0  0  0  0  0  0  0  0  0  0
    7.8098   -2.4312   14.1114 N   0  0  0  0  0  0  0  0  0  0  0  0
    4.2050   -0.5294   11.4025 C   0  0  0  0  0  0  0  0  0  0  0  0
   -3.2733   -1.8977    8.7821 N   0  0  0  0  0  0  0  0  0  0  0  0
   -3.5212   -3.1353    7.8995 C   0  0  0  0  0  0  0  0  0  0  0  0
   -4.8927   -2.9564    7.1766 C   0  0  0  0  0  0  0  0  0  0  0  0
   -5.4649   -1.6163    7.5554 C   0  0  0  0  0  0  0  0  0  0  0  0
   -4.3483   -0.9086    8.2726 C   0  0  0  0  0  0  0  0  0  0  0  0
    0.8625   -1.3806    9.2719 H   0  0  0  0  0  0  0  0  0  0  0  0
    2.0673   -0.4974   10.4444 H   0  0  0  0  0  0  0  0  0  0  0  0
    2.8850   -3.3332   10.5194 H   0  0  0  0  0  0  0  0  0  0  0  0
    2.2607   -3.4049   12.1529 H   0  0  0  0  0  0  0  0  0  0  0  0
    4.8455   -4.1389   11.8641 H   0  0  0  0  0  0  0  0  0  0  0  0
    4.5310   -3.3306   13.3171 H   0  0  0  0  0  0  0  0  0  0  0  0
    7.3323   -2.3629   12.0126 H   0  0  0  0  0  0  0  0  0  0  0  0
    6.6867   -1.4933   11.1270 H   0  0  0  0  0  0  0  0  0  0  0  0
    8.4298    1.1162   16.3533 H   0  0  0  0  0  0  0  0  0  0  0  0
   10.9281    0.9830   16.2449 H   0  0  0  0  0  0  0  0  0  0  0  0
   12.0479   -1.1006   15.5152 H   0  0  0  0  0  0  0  0  0  0  0  0
   10.6954   -2.9822   14.5905 H   0  0  0  0  0  0  0  0  0  0  0  0
    8.2406   -2.7989   13.3178 H   0  0  0  0  0  0  0  0  0  0  0  0
    3.9663    0.5980   11.4048 H   0  0  0  0  0  0  0  0  0  0  0  0
    4.6919   -0.2300   10.5142 H   0  0  0  0  0  0  0  0  0  0  0  0
   -3.5715   -4.0616    8.4868 H   0  0  0  0  0  0  0  0  0  0  0  0
   -2.7335   -3.5040    7.3102 H   0  0  0  0  0  0  0  0  0  0  0  0
   -5.6412   -3.7006    7.4387 H   0  0  0  0  0  0  0  0  0  0  0  0
   -4.8055   -3.1234    6.1177 H   0  0  0  0  0  0  0  0  0  0  0  0
   -6.3481   -1.6871    8.1931 H   0  0  0  0  0  0  0  0  0  0  0  0
   -5.8252   -1.0472    6.6932 H   0  0  0  0  0  0  0  0  0  0  0  0
   -3.9062   -0.2864    7.5144 H   0  0  0  0  0  0  0  0  0  0  0  0
   -4.7328   -0.3024    9.0922 H   0  0  0  0  0  0  0  0  0  0  0  0
  1  2  2  0
  2  3  2  0
  2  4  1  0
  4  5  1  0
  5  6  1  0
  6  7  1  0
  7  8  1  0
  8  9  1  0
  9 10  1  0
 10 11  2  0
 11 12  1  0
 12 13  2  0
 13 14  1  0
 14 15  2  0
 15 16  1  0
 16 17  2  0
 17 18  1  0
  9 19  1  0
  2 20  1  0
 20 21  1  0
 21 22  1  0
 22 23  1  0
 23 24  1  0
 19  5  1  0
 24 20  1  0
 18 10  1  0
 17 12  1  0
  4 25  1  0
  5 26  1  0
  6 27  1  0
  6 28  1  0
  7 29  1  0
  7 30  1  0
  8 31  1  0
  8 32  1  0
 13 33  1  0
 14 34  1  0
 15 35  1  0
 16 36  1  0
 18 37  1  0
 19 38  1  0
 19 39  1  0
 21 40  1  0
 21 41  1  0
 22 42  1  0
 22 43  1  0
 23 44  1  0
 23 45  1  0
 24 46  1  0
 24 47  1  0
M  END
>  <Energy>  (1165) 
988.29412412296062

>  <compound_id>  (1165) 
9265

>  <target_id>  (1165) 
1

>  <reference_id>  (1165) 
103

>  <inspiration_ids>  (1165) 
[103, 95]

>  <energy_score>  (1165) 
1095.7056267719065

>  <distance_score>  (1165) 
5.749636759328929

>  <path>  (1165) 
/opt/xchem-fragalysis-2/maxwin/BulkDock/SCRATCH/511014/C9265-P103/C9265-P103.minimised.mol

>  <scratch_subdir>  (1165) 
/opt/xchem-fragalysis-2/maxwin/BulkDock/SCRATCH/511014/C9265-P103

>  <fragmenstein_runtime>  (1165) 
11.862163305282593

>  <fragmenstein_outcome>  (1165) 
too moved

>  <fragmenstein_mode>  (1165) 
expansion

>  <fragmenstein_error>  (1165) 


$$$$
C9265-P95
     RDKit          3D

 47 50  0  0  0  0  0  0  0  0999 V2000
   -2.6133    0.2128    8.7819 O   0  0  0  0  0  0  0  0  0  0  0  0
   -2.0268   -1.1236    8.6797 S   0  0  0  0  0  0  0  0  0  0  0  0
   -1.7094   -1.4837    7.2980 O   0  0  0  0  0  0  0  0  0  0  0  0
    0.0371   -1.1367    9.8341 N   0  0  0  0  0  0  0  0  0  0  0  0
    1.1133   -1.6871   11.2408 C   0  0  0  0  0  0  0  0  0  0  0  0
    1.0967   -0.6281   12.4908 C   0  0  0  0  0  0  0  0  0  0  0  0
    2.1866    0.8811   12.3436 C   0  0  0  0  0  0  0  0  0  0  0  0
    3.3109    0.9574   11.2042 C   0  0  0  0  0  0  0  0  0  0  0  0
    4.1875   -0.5475   11.1247 N   0  0  0  0  0  0  0  0  0  0  0  0
    5.8019   -0.7966   12.0281 C   0  0  0  0  0  0  0  0  0  0  0  0
    7.0942   -0.4019   11.7707 N   0  0  0  0  0  0  0  0  0  0  0  0
    7.8694   -0.3108   12.9641 C   0  0  0  0  0  0  0  0  0  0  0  0
    9.0015    0.4883   13.4407 C   0  0  0  0  0  0  0  0  0  0  0  0
    9.6716    0.1534   14.6170 C   0  0  0  0  0  0  0  0  0  0  0  0
    9.3091   -1.0083   15.2702 C   0  0  0  0  0  0  0  0  0  0  0  0
    8.2071   -1.7758   14.8503 C   0  0  0  0  0  0  0  0  0  0  0  0
    7.4639   -1.3501   13.7546 C   0  0  0  0  0  0  0  0  0  0  0  0
    6.2940   -1.7163   13.1342 N   0  0  0  0  0  0  0  0  0  0  0  0
    2.9227   -1.9924   10.8706 C   0  0  0  0  0  0  0  0  0  0  0  0
   -3.5417   -1.9970    8.5723 N   0  0  0  0  0  0  0  0  0  0  0  0
   -3.8214   -2.7677    7.2497 C   0  0  0  0  0  0  0  0  0  0  0  0
   -5.3240   -2.7509    6.9426 C   0  0  0  0  0  0  0  0  0  0  0  0
   -5.8858   -1.5494    7.6475 C   0  0  0  0  0  0  0  0  0  0  0  0
   -4.7157   -0.9422    8.3950 C   0  0  0  0  0  0  0  0  0  0  0  0
    0.6263   -1.3712    9.0207 H   0  0  0  0  0  0  0  0  0  0  0  0
    0.7382   -2.6253   11.6250 H   0  0  0  0  0  0  0  0  0  0  0  0
    1.3248   -1.2251   13.3435 H   0  0  0  0  0  0  0  0  0  0  0  0
    0.0599   -0.4218   12.8056 H   0  0  0  0  0  0  0  0  0  0  0  0
    2.6996    1.2323   13.2201 H   0  0  0  0  0  0  0  0  0  0  0  0
    1.6232    1.8273   12.4209 H   0  0  0  0  0  0  0  0  0  0  0  0
    3.9579    1.7896   11.4899 H   0  0  0  0  0  0  0  0  0  0  0  0
    2.9274    1.2245   10.2214 H   0  0  0  0  0  0  0  0  0  0  0  0
    9.4299    1.2676   12.8220 H   0  0  0  0  0  0  0  0  0  0  0  0
   10.5427    0.7203   14.9299 H   0  0  0  0  0  0  0  0  0  0  0  0
    9.9445   -1.3472   16.0775 H   0  0  0  0  0  0  0  0  0  0  0  0
    7.9826   -2.7206   15.2970 H   0  0  0  0  0  0  0  0  0  0  0  0
    5.7865   -2.4776   13.5316 H   0  0  0  0  0  0  0  0  0  0  0  0
    3.3004   -2.8246   11.5010 H   0  0  0  0  0  0  0  0  0  0  0  0
    2.9656   -2.4709    9.8891 H   0  0  0  0  0  0  0  0  0  0  0  0
   -3.4264   -3.7817    7.2990 H   0  0  0  0  0  0  0  0  0  0  0  0
   -3.4245   -2.2214    6.3945 H   0  0  0  0  0  0  0  0  0  0  0  0
   -5.8403   -3.6536    7.2614 H   0  0  0  0  0  0  0  0  0  0  0  0
   -5.4910   -2.6937    5.8601 H   0  0  0  0  0  0  0  0  0  0  0  0
   -6.7148   -1.7964    8.3131 H   0  0  0  0  0  0  0  0  0  0  0  0
   -6.2984   -0.8300    6.9297 H   0  0  0  0  0  0  0  0  0  0  0  0
   -4.9961   -0.4901    9.3409 H   0  0  0  0  0  0  0  0  0  0  0  0
   -4.4052   -0.1457    7.7245 H   0  0  0  0  0  0  0  0  0  0  0  0
  1  2  2  0
  2  3  2  0
  2  4  1  0
  4  5  1  0
  5  6  1  0
  6  7  1  0
  7  8  1  0
  8  9  1  0
  9 10  1  0
 10 11  2  0
 11 12  1  0
 12 13  2  0
 13 14  1  0
 14 15  2  0
 15 16  1  0
 16 17  2  0
 17 18  1  0
  9 19  1  0
  2 20  1  0
 20 21  1  0
 21 22  1  0
 22 23  1  0
 23 24  1  0
 19  5  1  0
 24 20  1  0
 18 10  1  0
 17 12  1  0
  4 25  1  0
  5 26  1  0
  6 27  1  0
  6 28  1  0
  7 29  1  0
  7 30  1  0
  8 31  1  0
  8 32  1  0
 13 33  1  0
 14 34  1  0
 15 35  1  0
 16 36  1  0
 18 37  1  0
 19 38  1  0
 19 39  1  0
 21 40  1  0
 21 41  1  0
 22 42  1  0
 22 43  1  0
 23 44  1  0
 23 45  1  0
 24 46  1  0
 24 47  1  0
M  END
>  <Energy>  (1166) 
435.96733425943535

>  <compound_id>  (1166) 
9265

>  <target_id>  (1166) 
1

>  <reference_id>  (1166) 
95

>  <inspiration_ids>  (1166) 
[103, 95]

>  <energy_score>  (1166) 
543.3788369083793

>  <distance_score>  (1166) 
6.496962435331038

>  <path>  (1166) 
/opt/xchem-fragalysis-2/maxwin/BulkDock/SCRATCH/511014/C9265-P95/C9265-P95.minimised.mol

>  <scratch_subdir>  (1166) 
/opt/xchem-fragalysis-2/maxwin/BulkDock/SCRATCH/511014/C9265-P95

>  <fragmenstein_runtime>  (1166) 
13.586151361465454

>  <fragmenstein_outcome>  (1166) 
too moved

>  <fragmenstein_mode>  (1166) 
expansion

>  <fragmenstein_error>  (1166) 


$$$$
C6221-P103
     RDKit          3D

 49 52  0  0  0  0  0  0  0  0999 V2000
   -2.1438    0.1103    9.7290 O   0  0  0  0  0  0  0  0  0  0  0  0
   -1.4356   -0.7481    9.2063 C   0  0  0  0  0  0  0  0  0  0  0  0
    0.4080   -1.4424    9.7435 N   0  0  0  0  0  0  0  0  0  0  0  0
    1.6096   -0.9376   11.0451 C   0  0  0  0  0  0  0  0  0  0  0  0
    3.4332    0.0617   11.2372 C   0  0  0  0  0  0  0  0  0  0  0  0
    5.3241   -0.6712   11.6971 C   0  0  0  0  0  0  0  0  0  0  0  0
    6.7281   -1.2325   12.7746 N   0  0  0  0  0  0  0  0  0  0  0  0
    6.5244   -2.1718   13.8175 C   0  0  0  0  0  0  0  0  0  0  0  0
    7.3499   -2.2544   14.8253 N   0  0  0  0  0  0  0  0  0  0  0  0
    8.3183   -1.3526   14.6245 C   0  0  0  0  0  0  0  0  0  0  0  0
    9.4863   -1.1303   15.4028 C   0  0  0  0  0  0  0  0  0  0  0  0
   10.4435   -0.1627   15.1600 C   0  0  0  0  0  0  0  0  0  0  0  0
   10.2853    0.5858   14.0410 C   0  0  0  0  0  0  0  0  0  0  0  0
    9.1795    0.3373   13.2057 C   0  0  0  0  0  0  0  0  0  0  0  0
    8.0807   -0.6096   13.4272 C   0  0  0  0  0  0  0  0  0  0  0  0
   -2.2410   -1.2911    7.6413 C   0  0  0  0  0  0  0  0  0  0  0  0
   -3.2812   -1.9223    8.2704 C   0  0  0  0  0  0  0  0  0  0  0  0
   -4.4044   -1.1242    8.7397 C   0  0  0  0  0  0  0  0  0  0  0  0
   -5.2294   -0.4260    7.9453 C   0  0  0  0  0  0  0  0  0  0  0  0
   -4.6974   -0.1075    6.8172 N   0  0  0  0  0  0  0  0  0  0  0  0
   -3.2845   -0.4464    6.5753 C   0  0  0  0  0  0  0  0  0  0  0  0
   -3.0820    0.2955    4.9569 N   0  0  0  0  0  0  0  0  0  0  0  0
   -4.0774    1.7067    4.6853 C   0  0  0  0  0  0  0  0  0  0  0  0
   -3.6857    2.2122    3.2846 C   0  0  0  0  0  0  0  0  0  0  0  0
   -2.2146    1.8549    3.1309 C   0  0  0  0  0  0  0  0  0  0  0  0
   -2.0906    0.4062    3.6367 C   0  0  0  0  0  0  0  0  0  0  0  0
    0.7732   -2.0900    9.0711 H   0  0  0  0  0  0  0  0  0  0  0  0
    1.0232   -0.7090   11.9553 H   0  0  0  0  0  0  0  0  0  0  0  0
    1.7016   -0.4002   10.0639 H   0  0  0  0  0  0  0  0  0  0  0  0
    3.1890    1.0274   11.7579 H   0  0  0  0  0  0  0  0  0  0  0  0
    3.6447    0.6397   10.3141 H   0  0  0  0  0  0  0  0  0  0  0  0
    6.0347   -0.5918   10.8574 H   0  0  0  0  0  0  0  0  0  0  0  0
    5.4138   -0.0244   12.5484 H   0  0  0  0  0  0  0  0  0  0  0  0
    5.6425   -2.7520   13.8218 H   0  0  0  0  0  0  0  0  0  0  0  0
    9.7272   -1.8149   16.1781 H   0  0  0  0  0  0  0  0  0  0  0  0
   11.3250   -0.0679   15.7832 H   0  0  0  0  0  0  0  0  0  0  0  0
   11.0442    1.3029   13.7433 H   0  0  0  0  0  0  0  0  0  0  0  0
    9.2795    0.8327   12.2839 H   0  0  0  0  0  0  0  0  0  0  0  0
   -3.6755   -2.7734    7.6812 H   0  0  0  0  0  0  0  0  0  0  0  0
   -4.3892   -0.6876    9.7276 H   0  0  0  0  0  0  0  0  0  0  0  0
   -6.1336    0.0736    8.2557 H   0  0  0  0  0  0  0  0  0  0  0  0
   -3.8835    2.6078    5.2706 H   0  0  0  0  0  0  0  0  0  0  0  0
   -5.1433    1.5070    4.8716 H   0  0  0  0  0  0  0  0  0  0  0  0
   -3.8372    3.2944    3.2006 H   0  0  0  0  0  0  0  0  0  0  0  0
   -4.2825    1.7636    2.4848 H   0  0  0  0  0  0  0  0  0  0  0  0
   -1.9105    1.9329    2.0804 H   0  0  0  0  0  0  0  0  0  0  0  0
   -1.5807    2.5546    3.6787 H   0  0  0  0  0  0  0  0  0  0  0  0
   -2.3087   -0.0843    2.6881 H   0  0  0  0  0  0  0  0  0  0  0  0
   -1.1286   -0.1345    3.6861 H   0  0  0  0  0  0  0  0  0  0  0  0
  1  2  2  0
  2  3  1  0
  3  4  1  0
  4  5  1  0
  5  6  1  0
  6  7  1  0
  7  8  1  0
  8  9  2  0
  9 10  1  0
 10 11  2  0
 11 12  1  0
 12 13  2  0
 13 14  1  0
 14 15  2  0
  2 16  1  0
 16 17  2  0
 17 18  1  0
 18 19  2  0
 19 20  1  0
 20 21  2  0
 21 22  1  0
 22 23  1  0
 23 24  1  0
 24 25  1  0
 25 26  1  0
 15  7  1  0
 21 16  1  0
 26 22  1  0
 15 10  1  0
  3 27  1  0
  4 28  1  0
  4 29  1  0
  5 30  1  0
  5 31  1  0
  6 32  1  0
  6 33  1  0
  8 34  1  0
 11 35  1  0
 12 36  1  0
 13 37  1  0
 14 38  1  0
 17 39  1  0
 18 40  1  0
 19 41  1  0
 23 42  1  0
 23 43  1  0
 24 44  1  0
 24 45  1  0
 25 46  1  0
 25 47  1  0
 26 48  1  0
 26 49  1  0
M  END
>  <Energy>  (1167) 
941.57802519107793

>  <compound_id>  (1167) 
6221

>  <target_id>  (1167) 
1

>  <reference_id>  (1167) 
103

>  <inspiration_ids>  (1167) 
[103, 95]

>  <energy_score>  (1167) 
886.0337221489744

>  <distance_score>  (1167) 
7.07847936921828

>  <path>  (1167) 
/opt/xchem-fragalysis-2/maxwin/BulkDock/SCRATCH/511014/C6221-P103/C6221-P103.minimised.mol

>  <scratch_subdir>  (1167) 
/opt/xchem-fragalysis-2/maxwin/BulkDock/SCRATCH/511014/C6221-P103

>  <fragmenstein_runtime>  (1167) 
11.155440330505371

>  <fragmenstein_outcome>  (1167) 
too moved

>  <fragmenstein_mode>  (1167) 
expansion

>  <fragmenstein_error>  (1167) 


$$$$
C6221-P95
     RDKit          3D

 49 52  0  0  0  0  0  0  0  0999 V2000
   -2.1668   -0.5035    9.2091 O   0  0  0  0  0  0  0  0  0  0  0  0
   -1.5232   -1.4010    8.7264 C   0  0  0  0  0  0  0  0  0  0  0  0
    0.4175   -1.9259    9.1178 N   0  0  0  0  0  0  0  0  0  0  0  0
    1.8316   -1.2269   10.4981 C   0  0  0  0  0  0  0  0  0  0  0  0
    3.8227   -0.4261   11.0759 C   0  0  0  0  0  0  0  0  0  0  0  0
    5.7451   -0.8138   12.0138 C   0  0  0  0  0  0  0  0  0  0  0  0
    7.3961   -0.5655   12.8215 N   0  0  0  0  0  0  0  0  0  0  0  0
    8.3704    0.5475   13.1094 C   0  0  0  0  0  0  0  0  0  0  0  0
    9.6366    0.4635   13.3658 N   0  0  0  0  0  0  0  0  0  0  0  0
    9.4277   -0.5173   14.2713 C   0  0  0  0  0  0  0  0  0  0  0  0
   10.4745   -1.0510   15.0059 C   0  0  0  0  0  0  0  0  0  0  0  0
   10.3186   -2.3839   15.1094 C   0  0  0  0  0  0  0  0  0  0  0  0
    9.0208   -2.9036   14.9284 C   0  0  0  0  0  0  0  0  0  0  0  0
    7.7915   -2.2794   14.6939 C   0  0  0  0  0  0  0  0  0  0  0  0
    8.0582   -1.1578   14.0494 C   0  0  0  0  0  0  0  0  0  0  0  0
   -2.5513   -2.1943    7.4054 C   0  0  0  0  0  0  0  0  0  0  0  0
   -3.1466   -1.2119    6.5675 C   0  0  0  0  0  0  0  0  0  0  0  0
   -4.4581   -0.5486    6.6964 C   0  0  0  0  0  0  0  0  0  0  0  0
   -5.0362   -0.6999    7.8782 C   0  0  0  0  0  0  0  0  0  0  0  0
   -4.6069   -1.7940    8.4370 N   0  0  0  0  0  0  0  0  0  0  0  0
   -3.8483   -2.6350    7.6404 C   0  0  0  0  0  0  0  0  0  0  0  0
   -4.6946   -3.3080    6.6011 N   0  0  0  0  0  0  0  0  0  0  0  0
   -4.6204   -3.1123    5.1050 C   0  0  0  0  0  0  0  0  0  0  0  0
   -6.0365   -2.8093    4.6173 C   0  0  0  0  0  0  0  0  0  0  0  0
   -6.8723   -3.6104    5.5642 C   0  0  0  0  0  0  0  0  0  0  0  0
   -6.1799   -3.3612    6.8918 C   0  0  0  0  0  0  0  0  0  0  0  0
    0.7124   -2.6802    8.4809 H   0  0  0  0  0  0  0  0  0  0  0  0
    2.5266   -2.0552   10.3922 H   0  0  0  0  0  0  0  0  0  0  0  0
    1.7259   -0.5397    9.6168 H   0  0  0  0  0  0  0  0  0  0  0  0
    3.2812    0.5874   11.3602 H   0  0  0  0  0  0  0  0  0  0  0  0
    4.2879    0.3077   10.3445 H   0  0  0  0  0  0  0  0  0  0  0  0
    6.4494   -0.6972   11.1464 H   0  0  0  0  0  0  0  0  0  0  0  0
    5.8486   -1.9043   12.1596 H   0  0  0  0  0  0  0  0  0  0  0  0
    8.1166    1.0354   14.0834 H   0  0  0  0  0  0  0  0  0  0  0  0
   11.4430   -0.5718   15.0571 H   0  0  0  0  0  0  0  0  0  0  0  0
   11.1487   -3.0434   15.3476 H   0  0  0  0  0  0  0  0  0  0  0  0
    8.9748   -3.9655   15.0200 H   0  0  0  0  0  0  0  0  0  0  0  0
    6.8431   -2.7629   14.5726 H   0  0  0  0  0  0  0  0  0  0  0  0
   -2.9192   -1.2520    5.5024 H   0  0  0  0  0  0  0  0  0  0  0  0
   -4.9180   -0.0005    5.8845 H   0  0  0  0  0  0  0  0  0  0  0  0
   -5.8738   -0.1707    8.2922 H   0  0  0  0  0  0  0  0  0  0  0  0
   -4.2850   -4.0144    4.6031 H   0  0  0  0  0  0  0  0  0  0  0  0
   -3.9815   -2.3561    4.6771 H   0  0  0  0  0  0  0  0  0  0  0  0
   -6.1840   -3.1004    3.5732 H   0  0  0  0  0  0  0  0  0  0  0  0
   -6.2629   -1.7416    4.7085 H   0  0  0  0  0  0  0  0  0  0  0  0
   -7.9256   -3.3178    5.5704 H   0  0  0  0  0  0  0  0  0  0  0  0
   -6.8019   -4.6686    5.3159 H   0  0  0  0  0  0  0  0  0  0  0  0
   -6.6004   -2.4374    7.2919 H   0  0  0  0  0  0  0  0  0  0  0  0
   -6.4701   -4.1771    7.5426 H   0  0  0  0  0  0  0  0  0  0  0  0
  1  2  2  0
  2  3  1  0
  3  4  1  0
  4  5  1  0
  5  6  1  0
  6  7  1  0
  7  8  1  0
  8  9  2  0
  9 10  1  0
 10 11  2  0
 11 12  1  0
 12 13  2  0
 13 14  1  0
 14 15  2  0
  2 16  1  0
 16 17  2  0
 17 18  1  0
 18 19  2  0
 19 20  1  0
 20 21  2  0
 21 22  1  0
 22 23  1  0
 23 24  1  0
 24 25  1  0
 25 26  1  0
 15  7  1  0
 21 16  1  0
 26 22  1  0
 15 10  1  0
  3 27  1  0
  4 28  1  0
  4 29  1  0
  5 30  1  0
  5 31  1  0
  6 32  1  0
  6 33  1  0
  8 34  1  0
 11 35  1  0
 12 36  1  0
 13 37  1  0
 14 38  1  0
 17 39  1  0
 18 40  1  0
 19 41  1  0
 23 42  1  0
 23 43  1  0
 24 44  1  0
 24 45  1  0
 25 46  1  0
 25 47  1  0
 26 48  1  0
 26 49  1  0
M  END
>  <Energy>  (1168) 
1127.1691944452236

>  <compound_id>  (1168) 
6221

>  <target_id>  (1168) 
1

>  <reference_id>  (1168) 
95

>  <inspiration_ids>  (1168) 
[103, 95]

>  <energy_score>  (1168) 
1071.62489140312

>  <distance_score>  (1168) 
5.627659440431078

>  <path>  (1168) 
/opt/xchem-fragalysis-2/maxwin/BulkDock/SCRATCH/511014/C6221-P95/C6221-P95.minimised.mol

>  <scratch_subdir>  (1168) 
/opt/xchem-fragalysis-2/maxwin/BulkDock/SCRATCH/511014/C6221-P95

>  <fragmenstein_runtime>  (1168) 
9.8156156539917

>  <fragmenstein_outcome>  (1168) 
too moved

>  <fragmenstein_mode>  (1168) 
expansion

>  <fragmenstein_error>  (1168) 


$$$$
C9275-P103
     RDKit          3D

 46 49  0  0  0  0  0  0  0  0999 V2000
   -1.5103   -1.7328    8.3618 O   0  0  0  0  0  0  0  0  0  0  0  0
   -1.4770   -0.8186    9.0949 C   0  0  0  0  0  0  0  0  0  0  0  0
   -2.6929    0.1591    9.2211 N   0  0  0  0  0  0  0  0  0  0  0  0
   -4.0352    0.1370    8.6325 C   0  0  0  0  0  0  0  0  0  0  0  0
   -5.4991    0.5306    8.0681 C   0  0  0  0  0  0  0  0  0  0  0  0
   -5.6252    1.5929    7.5015 O   0  0  0  0  0  0  0  0  0  0  0  0
   -6.4634   -0.4732    8.3796 N   0  0  0  0  0  0  0  0  0  0  0  0
   -6.5498   -1.4886    7.2574 C   0  0  0  0  0  0  0  0  0  0  0  0
   -7.3066   -0.9505    6.0598 C   0  0  0  0  0  0  0  0  0  0  0  0
   -8.3874   -0.2207    6.7768 C   0  0  0  0  0  0  0  0  0  0  0  0
   -7.9595   -0.4891    8.2057 C   0  0  0  0  0  0  0  0  0  0  0  0
    0.4757   -0.6727    9.9895 C   0  0  0  0  0  0  0  0  0  0  0  0
    1.9118    0.4622    9.5856 C   0  0  0  0  0  0  0  0  0  0  0  0
    3.5617    0.8516   10.3191 C   0  0  0  0  0  0  0  0  0  0  0  0
    4.2277   -0.1076   11.2059 C   0  0  0  0  0  0  0  0  0  0  0  0
    5.8098   -0.8226   12.0439 N   0  0  0  0  0  0  0  0  0  0  0  0
    5.8868   -2.2987   12.6296 C   0  0  0  0  0  0  0  0  0  0  0  0
    6.3072   -2.4356   13.8609 N   0  0  0  0  0  0  0  0  0  0  0  0
    7.4122   -1.7794   13.8039 C   0  0  0  0  0  0  0  0  0  0  0  0
    8.4160   -1.9328   14.8311 C   0  0  0  0  0  0  0  0  0  0  0  0
    9.6320   -1.2324   14.9893 C   0  0  0  0  0  0  0  0  0  0  0  0
    9.8426   -0.1944   14.1137 C   0  0  0  0  0  0  0  0  0  0  0  0
    8.6803    0.1267   13.2940 C   0  0  0  0  0  0  0  0  0  0  0  0
    7.4121   -0.7835   12.7087 C   0  0  0  0  0  0  0  0  0  0  0  0
    2.5736   -0.7180   11.5406 C   0  0  0  0  0  0  0  0  0  0  0  0
    1.0042   -1.0272   11.1493 C   0  0  0  0  0  0  0  0  0  0  0  0
   -2.4987    0.7769    9.9184 H   0  0  0  0  0  0  0  0  0  0  0  0
   -3.8287    1.1986    8.5488 H   0  0  0  0  0  0  0  0  0  0  0  0
   -3.7786   -0.5039    7.7800 H   0  0  0  0  0  0  0  0  0  0  0  0
   -5.5277   -1.7480    6.9671 H   0  0  0  0  0  0  0  0  0  0  0  0
   -6.9774   -2.4432    7.5982 H   0  0  0  0  0  0  0  0  0  0  0  0
   -6.7005   -0.2588    5.4674 H   0  0  0  0  0  0  0  0  0  0  0  0
   -7.6722   -1.7472    5.4064 H   0  0  0  0  0  0  0  0  0  0  0  0
   -8.3660    0.8485    6.5408 H   0  0  0  0  0  0  0  0  0  0  0  0
   -9.3902   -0.6043    6.5690 H   0  0  0  0  0  0  0  0  0  0  0  0
   -8.4083   -1.4042    8.6184 H   0  0  0  0  0  0  0  0  0  0  0  0
   -8.3341    0.3274    8.8366 H   0  0  0  0  0  0  0  0  0  0  0  0
    1.9348    1.1709    8.7334 H   0  0  0  0  0  0  0  0  0  0  0  0
    4.1175    1.6173    9.7731 H   0  0  0  0  0  0  0  0  0  0  0  0
    5.0796   -2.9810   12.3190 H   0  0  0  0  0  0  0  0  0  0  0  0
    8.1492   -2.7844   15.4136 H   0  0  0  0  0  0  0  0  0  0  0  0
   10.3857   -1.5413   15.7001 H   0  0  0  0  0  0  0  0  0  0  0  0
   10.7388    0.4110   14.1017 H   0  0  0  0  0  0  0  0  0  0  0  0
    8.3051    0.4959   14.2995 H   0  0  0  0  0  0  0  0  0  0  0  0
    2.9127   -1.9798   11.4633 H   0  0  0  0  0  0  0  0  0  0  0  0
    0.4572   -0.6756   12.0725 H   0  0  0  0  0  0  0  0  0  0  0  0
  1  2  2  0
  2  3  1  0
  3  4  1  0
  4  5  1  0
  5  6  2  0
  5  7  1  0
  7  8  1  0
  8  9  1  0
  9 10  1  0
 10 11  1  0
  2 12  1  0
 12 13  2  0
 13 14  1  0
 14 15  2  0
 15 16  1  0
 16 17  1  0
 17 18  2  0
 18 19  1  0
 19 20  2  0
 20 21  1  0
 21 22  2  0
 22 23  1  0
 23 24  2  0
 15 25  1  0
 25 26  2  0
 11  7  1  0
 26 12  1  0
 24 16  1  0
 24 19  1  0
  3 27  1  0
  4 28  1  0
  4 29  1  0
  8 30  1  0
  8 31  1  0
  9 32  1  0
  9 33  1  0
 10 34  1  0
 10 35  1  0
 11 36  1  0
 11 37  1  0
 13 38  1  0
 14 39  1  0
 17 40  1  0
 20 41  1  0
 21 42  1  0
 22 43  1  0
 23 44  1  0
 25 45  1  0
 26 46  1  0
M  END
>  <Energy>  (1169) 
999.24569105300156

>  <compound_id>  (1169) 
9275

>  <target_id>  (1169) 
1

>  <reference_id>  (1169) 
103

>  <inspiration_ids>  (1169) 
[103, 95]

>  <energy_score>  (1169) 
896.9638078841975

>  <distance_score>  (1169) 
6.566644931583899

>  <path>  (1169) 
/opt/xchem-fragalysis-2/maxwin/BulkDock/SCRATCH/511014/C9275-P103/C9275-P103.minimised.mol

>  <scratch_subdir>  (1169) 
/opt/xchem-fragalysis-2/maxwin/BulkDock/SCRATCH/511014/C9275-P103

>  <fragmenstein_runtime>  (1169) 
13.896495342254639

>  <fragmenstein_outcome>  (1169) 
too moved

>  <fragmenstein_mode>  (1169) 
expansion

>  <fragmenstein_error>  (1169) 


$$$$
C9275-P95
     RDKit          3D

 46 49  0  0  0  0  0  0  0  0999 V2000
   -1.8876   -2.1728    8.6749 O   0  0  0  0  0  0  0  0  0  0  0  0
   -1.5964   -1.0864    8.8889 C   0  0  0  0  0  0  0  0  0  0  0  0
   -2.6815    0.0956    8.7024 N   0  0  0  0  0  0  0  0  0  0  0  0
   -4.1072    0.0661    8.3788 C   0  0  0  0  0  0  0  0  0  0  0  0
   -4.5779   -0.7667    7.1317 C   0  0  0  0  0  0  0  0  0  0  0  0
   -3.8272   -1.4961    6.5404 O   0  0  0  0  0  0  0  0  0  0  0  0
   -5.9466   -0.4134    6.8576 N   0  0  0  0  0  0  0  0  0  0  0  0
   -6.8820   -1.3628    7.5596 C   0  0  0  0  0  0  0  0  0  0  0  0
   -8.3366   -0.9850    7.3839 C   0  0  0  0  0  0  0  0  0  0  0  0
   -8.2882   -0.4921    5.9826 C   0  0  0  0  0  0  0  0  0  0  0  0
   -6.8294   -0.7526    5.6959 C   0  0  0  0  0  0  0  0  0  0  0  0
    0.3670   -0.9213    9.6776 C   0  0  0  0  0  0  0  0  0  0  0  0
    1.6657    0.4329    9.2765 C   0  0  0  0  0  0  0  0  0  0  0  0
    3.1843    1.1186   10.1198 C   0  0  0  0  0  0  0  0  0  0  0  0
    3.9218    0.1811   11.0165 C   0  0  0  0  0  0  0  0  0  0  0  0
    5.5634   -0.5246   11.8448 N   0  0  0  0  0  0  0  0  0  0  0  0
    6.8859   -0.5963   11.1243 C   0  0  0  0  0  0  0  0  0  0  0  0
    7.8373   -0.0454   11.8228 N   0  0  0  0  0  0  0  0  0  0  0  0
    7.6737   -0.5169   13.0020 C   0  0  0  0  0  0  0  0  0  0  0  0
    8.5941   -0.2503   14.0858 C   0  0  0  0  0  0  0  0  0  0  0  0
    8.6617   -1.2276   14.9977 C   0  0  0  0  0  0  0  0  0  0  0  0
    7.6760   -2.1665   14.8709 C   0  0  0  0  0  0  0  0  0  0  0  0
    6.4433   -2.0418   14.1456 C   0  0  0  0  0  0  0  0  0  0  0  0
    6.4455   -1.2243   13.0239 C   0  0  0  0  0  0  0  0  0  0  0  0
    2.4026   -0.6994   11.2583 C   0  0  0  0  0  0  0  0  0  0  0  0
    0.9112   -1.4565   10.8459 C   0  0  0  0  0  0  0  0  0  0  0  0
   -2.2247    0.9559    8.8481 H   0  0  0  0  0  0  0  0  0  0  0  0
   -4.5096    1.0746    8.3643 H   0  0  0  0  0  0  0  0  0  0  0  0
   -4.5693   -0.4352    9.2315 H   0  0  0  0  0  0  0  0  0  0  0  0
   -6.6461   -1.2921    8.6268 H   0  0  0  0  0  0  0  0  0  0  0  0
   -6.6638   -2.4123    7.2961 H   0  0  0  0  0  0  0  0  0  0  0  0
   -9.0045   -1.8387    7.5299 H   0  0  0  0  0  0  0  0  0  0  0  0
   -8.6330   -0.1866    8.0726 H   0  0  0  0  0  0  0  0  0  0  0  0
   -8.5247    0.5760    5.9315 H   0  0  0  0  0  0  0  0  0  0  0  0
   -8.9507   -1.0329    5.3014 H   0  0  0  0  0  0  0  0  0  0  0  0
   -6.6171   -1.7642    5.3086 H   0  0  0  0  0  0  0  0  0  0  0  0
   -6.5007   -0.0906    4.8835 H   0  0  0  0  0  0  0  0  0  0  0  0
    1.5882    1.1708    8.4577 H   0  0  0  0  0  0  0  0  0  0  0  0
    3.6634    1.9643    9.6242 H   0  0  0  0  0  0  0  0  0  0  0  0
    6.8450   -0.4245   10.0710 H   0  0  0  0  0  0  0  0  0  0  0  0
    9.4090    0.4521   13.9460 H   0  0  0  0  0  0  0  0  0  0  0  0
    9.5278   -1.3358   15.6331 H   0  0  0  0  0  0  0  0  0  0  0  0
    7.8952   -3.0827   15.3724 H   0  0  0  0  0  0  0  0  0  0  0  0
    5.6048   -2.6400   14.4419 H   0  0  0  0  0  0  0  0  0  0  0  0
    1.9940   -0.0577   12.1510 H   0  0  0  0  0  0  0  0  0  0  0  0
    0.1734   -1.3284   11.6578 H   0  0  0  0  0  0  0  0  0  0  0  0
  1  2  2  0
  2  3  1  0
  3  4  1  0
  4  5  1  0
  5  6  2  0
  5  7  1  0
  7  8  1  0
  8  9  1  0
  9 10  1  0
 10 11  1  0
  2 12  1  0
 12 13  2  0
 13 14  1  0
 14 15  2  0
 15 16  1  0
 16 17  1  0
 17 18  2  0
 18 19  1  0
 19 20  2  0
 20 21  1  0
 21 22  2  0
 22 23  1  0
 23 24  2  0
 15 25  1  0
 25 26  2  0
 11  7  1  0
 26 12  1  0
 24 16  1  0
 24 19  1  0
  3 27  1  0
  4 28  1  0
  4 29  1  0
  8 30  1  0
  8 31  1  0
  9 32  1  0
  9 33  1  0
 10 34  1  0
 10 35  1  0
 11 36  1  0
 11 37  1  0
 13 38  1  0
 14 39  1  0
 17 40  1  0
 20 41  1  0
 21 42  1  0
 22 43  1  0
 23 44  1  0
 25 45  1  0
 26 46  1  0
M  END
>  <Energy>  (1170) 
855.76671151403991

>  <compound_id>  (1170) 
9275

>  <target_id>  (1170) 
1

>  <reference_id>  (1170) 
95

>  <inspiration_ids>  (1170) 
[103, 95]

>  <energy_score>  (1170) 
753.4848283452461

>  <distance_score>  (1170) 
6.493216379583637

>  <path>  (1170) 
/opt/xchem-fragalysis-2/maxwin/BulkDock/SCRATCH/511014/C9275-P95/C9275-P95.minimised.mol

>  <scratch_subdir>  (1170) 
/opt/xchem-fragalysis-2/maxwin/BulkDock/SCRATCH/511014/C9275-P95

>  <fragmenstein_runtime>  (1170) 
14.612235069274902

>  <fragmenstein_outcome>  (1170) 
too moved

>  <fragmenstein_mode>  (1170) 
expansion

>  <fragmenstein_error>  (1170) 


$$$$
C9276-P103
     RDKit          3D

 50 53  0  0  0  0  0  0  0  0999 V2000
   -3.0634   -2.5767    8.1167 C   0  0  0  0  0  0  0  0  0  0  0  0
   -2.3438   -1.3254    8.1832 N   0  0  0  0  0  0  0  0  0  0  0  0
   -3.5171   -0.3857    7.9640 C   0  0  0  0  0  0  0  0  0  0  0  0
   -5.0056   -0.5907    8.3160 C   0  0  0  0  0  0  0  0  0  0  0  0
   -5.2586   -0.3931    9.4623 O   0  0  0  0  0  0  0  0  0  0  0  0
   -5.8411   -1.0227    7.2497 N   0  0  0  0  0  0  0  0  0  0  0  0
   -6.4495    0.1718    6.5414 C   0  0  0  0  0  0  0  0  0  0  0  0
   -7.4101   -0.1737    5.4164 C   0  0  0  0  0  0  0  0  0  0  0  0
   -7.8862   -1.4983    5.8764 C   0  0  0  0  0  0  0  0  0  0  0  0
   -7.2742   -1.4724    7.2477 C   0  0  0  0  0  0  0  0  0  0  0  0
   -1.2676   -0.7546    9.3787 C   0  0  0  0  0  0  0  0  0  0  0  0
    0.7625   -0.6914    9.9930 C   0  0  0  0  0  0  0  0  0  0  0  0
    1.6141   -1.7264   10.5331 C   0  0  0  0  0  0  0  0  0  0  0  0
    3.2114   -2.2469   11.3432 C   0  0  0  0  0  0  0  0  0  0  0  0
    4.3449   -0.8260   11.3769 C   0  0  0  0  0  0  0  0  0  0  0  0
    5.9424   -0.9948   12.0735 N   0  0  0  0  0  0  0  0  0  0  0  0
    7.0214   -0.8242   11.3173 C   0  0  0  0  0  0  0  0  0  0  0  0
    7.9506   -0.2822   12.0652 N   0  0  0  0  0  0  0  0  0  0  0  0
    7.8369   -0.8102   13.2325 C   0  0  0  0  0  0  0  0  0  0  0  0
    8.7241   -0.5607   14.3268 C   0  0  0  0  0  0  0  0  0  0  0  0
    8.6973   -1.5507   15.2275 C   0  0  0  0  0  0  0  0  0  0  0  0
    7.6424   -2.4394   15.1186 C   0  0  0  0  0  0  0  0  0  0  0  0
    6.5078   -2.3444   14.3101 C   0  0  0  0  0  0  0  0  0  0  0  0
    6.6828   -1.6037   13.1835 C   0  0  0  0  0  0  0  0  0  0  0  0
    3.6116    0.5540   10.6402 C   0  0  0  0  0  0  0  0  0  0  0  0
    2.0799    0.5241    9.7350 C   0  0  0  0  0  0  0  0  0  0  0  0
   -3.0774   -3.0286    9.0513 H   0  0  0  0  0  0  0  0  0  0  0  0
   -2.7077   -3.3952    7.5131 H   0  0  0  0  0  0  0  0  0  0  0  0
   -4.0595   -2.5539    7.6695 H   0  0  0  0  0  0  0  0  0  0  0  0
   -3.5539   -0.4034    6.8867 H   0  0  0  0  0  0  0  0  0  0  0  0
   -3.3250    0.5706    8.4501 H   0  0  0  0  0  0  0  0  0  0  0  0
   -6.9053    0.8563    7.2790 H   0  0  0  0  0  0  0  0  0  0  0  0
   -5.6184    0.7550    6.1262 H   0  0  0  0  0  0  0  0  0  0  0  0
   -8.2108    0.5692    5.3429 H   0  0  0  0  0  0  0  0  0  0  0  0
   -6.9288   -0.2397    4.4404 H   0  0  0  0  0  0  0  0  0  0  0  0
   -7.4697   -2.3070    5.2669 H   0  0  0  0  0  0  0  0  0  0  0  0
   -8.9748   -1.5949    5.8962 H   0  0  0  0  0  0  0  0  0  0  0  0
   -7.8647   -0.9256    8.0026 H   0  0  0  0  0  0  0  0  0  0  0  0
   -7.2556   -2.5019    7.6191 H   0  0  0  0  0  0  0  0  0  0  0  0
   -1.7684    0.2099    9.2392 H   0  0  0  0  0  0  0  0  0  0  0  0
   -1.3966   -1.0482   10.3907 H   0  0  0  0  0  0  0  0  0  0  0  0
    1.5041   -2.2078    9.5417 H   0  0  0  0  0  0  0  0  0  0  0  0
    3.4968   -3.2797   11.5062 H   0  0  0  0  0  0  0  0  0  0  0  0
    6.9453   -0.7673   10.2585 H   0  0  0  0  0  0  0  0  0  0  0  0
    9.5563    0.1241   14.2260 H   0  0  0  0  0  0  0  0  0  0  0  0
    9.5517   -1.6719   15.8728 H   0  0  0  0  0  0  0  0  0  0  0  0
    7.6726   -3.3437   15.6672 H   0  0  0  0  0  0  0  0  0  0  0  0
    5.6120   -2.8648   14.5634 H   0  0  0  0  0  0  0  0  0  0  0  0
    4.1841    1.4640   10.4653 H   0  0  0  0  0  0  0  0  0  0  0  0
    2.0072    1.4508    9.1533 H   0  0  0  0  0  0  0  0  0  0  0  0
  1  2  1  0
  2  3  1  0
  3  4  1  0
  4  5  2  0
  4  6  1  0
  6  7  1  0
  7  8  1  0
  8  9  1  0
  9 10  1  0
  2 11  1  0
 11 12  1  0
 12 13  2  0
 13 14  1  0
 14 15  2  0
 15 16  1  0
 16 17  1  0
 17 18  2  0
 18 19  1  0
 19 20  2  0
 20 21  1  0
 21 22  2  0
 22 23  1  0
 23 24  2  0
 15 25  1  0
 25 26  2  0
 10  6  1  0
 26 12  1  0
 24 16  1  0
 24 19  1  0
  1 27  1  0
  1 28  1  0
  1 29  1  0
  3 30  1  0
  3 31  1  0
  7 32  1  0
  7 33  1  0
  8 34  1  0
  8 35  1  0
  9 36  1  0
  9 37  1  0
 10 38  1  0
 10 39  1  0
 11 40  1  0
 11 41  1  0
 13 42  1  0
 14 43  1  0
 17 44  1  0
 20 45  1  0
 21 46  1  0
 22 47  1  0
 23 48  1  0
 25 49  1  0
 26 50  1  0
M  END
>  <Energy>  (1171) 
797.54326534666041

>  <compound_id>  (1171) 
9276

>  <target_id>  (1171) 
1

>  <reference_id>  (1171) 
103

>  <inspiration_ids>  (1171) 
[103, 95]

>  <energy_score>  (1171) 
640.0491114661187

>  <distance_score>  (1171) 
6.3419805609276905

>  <path>  (1171) 
/opt/xchem-fragalysis-2/maxwin/BulkDock/SCRATCH/511014/C9276-P103/C9276-P103.minimised.mol

>  <scratch_subdir>  (1171) 
/opt/xchem-fragalysis-2/maxwin/BulkDock/SCRATCH/511014/C9276-P103

>  <fragmenstein_runtime>  (1171) 
12.184886932373047

>  <fragmenstein_outcome>  (1171) 
too moved

>  <fragmenstein_mode>  (1171) 
expansion

>  <fragmenstein_error>  (1171) 


$$$$
C9276-P95
     RDKit          3D

 50 53  0  0  0  0  0  0  0  0999 V2000
   -3.4890    5.3995    5.6787 C   0  0  0  0  0  0  0  0  0  0  0  0
   -3.5859    5.3971    7.1460 N   0  0  0  0  0  0  0  0  0  0  0  0
   -5.0133    5.3368    7.5625 C   0  0  0  0  0  0  0  0  0  0  0  0
   -5.6862    4.0136    7.0730 C   0  0  0  0  0  0  0  0  0  0  0  0
   -5.0931    2.9680    7.1607 O   0  0  0  0  0  0  0  0  0  0  0  0
   -6.9520    4.3151    6.4817 N   0  0  0  0  0  0  0  0  0  0  0  0
   -8.0563    4.1843    7.5091 C   0  0  0  0  0  0  0  0  0  0  0  0
   -8.4229    2.7322    7.7845 C   0  0  0  0  0  0  0  0  0  0  0  0
   -8.3003    2.1867    6.4068 C   0  0  0  0  0  0  0  0  0  0  0  0
   -7.8936    3.4561    5.6870 C   0  0  0  0  0  0  0  0  0  0  0  0
   -2.8872    6.5827    7.7319 C   0  0  0  0  0  0  0  0  0  0  0  0
   -1.3730    6.4871    8.0058 C   0  0  0  0  0  0  0  0  0  0  0  0
   -0.6037    7.6355    8.2807 C   0  0  0  0  0  0  0  0  0  0  0  0
    0.7405    7.5619    8.7528 C   0  0  0  0  0  0  0  0  0  0  0  0
    1.3705    6.3268    8.9714 C   0  0  0  0  0  0  0  0  0  0  0  0
    2.6403    6.2188    9.6553 N   0  0  0  0  0  0  0  0  0  0  0  0
    3.2669    7.2006   10.4056 C   0  0  0  0  0  0  0  0  0  0  0  0
    3.9609    6.6934   11.4060 N   0  0  0  0  0  0  0  0  0  0  0  0
    3.8502    5.3446   11.2227 C   0  0  0  0  0  0  0  0  0  0  0  0
    4.1027    4.2932   12.0897 C   0  0  0  0  0  0  0  0  0  0  0  0
    3.8810    3.0092   11.5938 C   0  0  0  0  0  0  0  0  0  0  0  0
    3.6579    2.7601   10.2494 C   0  0  0  0  0  0  0  0  0  0  0  0
    3.4005    3.7957    9.3775 C   0  0  0  0  0  0  0  0  0  0  0  0
    3.3356    5.0595    9.9623 C   0  0  0  0  0  0  0  0  0  0  0  0
    0.6142    5.1864    8.6518 C   0  0  0  0  0  0  0  0  0  0  0  0
   -0.7206    5.2709    8.1819 C   0  0  0  0  0  0  0  0  0  0  0  0
   -3.8843    4.4784    5.2397 H   0  0  0  0  0  0  0  0  0  0  0  0
   -4.0282    6.2466    5.2390 H   0  0  0  0  0  0  0  0  0  0  0  0
   -2.4423    5.4697    5.3630 H   0  0  0  0  0  0  0  0  0  0  0  0
   -5.0837    5.3232    8.6566 H   0  0  0  0  0  0  0  0  0  0  0  0
   -5.5636    6.2103    7.1929 H   0  0  0  0  0  0  0  0  0  0  0  0
   -7.6935    4.6348    8.4426 H   0  0  0  0  0  0  0  0  0  0  0  0
   -8.9234    4.8051    7.2266 H   0  0  0  0  0  0  0  0  0  0  0  0
   -9.4258    2.6356    8.2093 H   0  0  0  0  0  0  0  0  0  0  0  0
   -7.7089    2.2491    8.4580 H   0  0  0  0  0  0  0  0  0  0  0  0
   -7.5190    1.4211    6.3524 H   0  0  0  0  0  0  0  0  0  0  0  0
   -9.2303    1.7678    6.0131 H   0  0  0  0  0  0  0  0  0  0  0  0
   -7.3293    3.1670    4.7904 H   0  0  0  0  0  0  0  0  0  0  0  0
   -8.7432    4.0464    5.3065 H   0  0  0  0  0  0  0  0  0  0  0  0
   -3.0864    7.4727    7.1206 H   0  0  0  0  0  0  0  0  0  0  0  0
   -3.3227    6.7818    8.7208 H   0  0  0  0  0  0  0  0  0  0  0  0
   -1.0600    8.6190    8.1795 H   0  0  0  0  0  0  0  0  0  0  0  0
    1.2402    8.5004    8.9762 H   0  0  0  0  0  0  0  0  0  0  0  0
    3.0885    8.2545   10.2499 H   0  0  0  0  0  0  0  0  0  0  0  0
    4.3538    4.4787   13.1259 H   0  0  0  0  0  0  0  0  0  0  0  0
    3.9194    2.1511   12.2432 H   0  0  0  0  0  0  0  0  0  0  0  0
    3.6099    1.7372    9.9040 H   0  0  0  0  0  0  0  0  0  0  0  0
    3.1065    3.6064    8.3505 H   0  0  0  0  0  0  0  0  0  0  0  0
    0.9776    4.1840    8.8454 H   0  0  0  0  0  0  0  0  0  0  0  0
   -1.2824    4.3547    8.0249 H   0  0  0  0  0  0  0  0  0  0  0  0
  1  2  1  0
  2  3  1  0
  3  4  1  0
  4  5  2  0
  4  6  1  0
  6  7  1  0
  7  8  1  0
  8  9  1  0
  9 10  1  0
  2 11  1  0
 11 12  1  0
 12 13  2  0
 13 14  1  0
 14 15  2  0
 15 16  1  0
 16 17  1  0
 17 18  2  0
 18 19  1  0
 19 20  2  0
 20 21  1  0
 21 22  2  0
 22 23  1  0
 23 24  2  0
 15 25  1  0
 25 26  2  0
 10  6  1  0
 26 12  1  0
 24 16  1  0
 24 19  1  0
  1 27  1  0
  1 28  1  0
  1 29  1  0
  3 30  1  0
  3 31  1  0
  7 32  1  0
  7 33  1  0
  8 34  1  0
  8 35  1  0
  9 36  1  0
  9 37  1  0
 10 38  1  0
 10 39  1  0
 11 40  1  0
 11 41  1  0
 13 42  1  0
 14 43  1  0
 17 44  1  0
 20 45  1  0
 21 46  1  0
 22 47  1  0
 23 48  1  0
 25 49  1  0
 26 50  1  0
M  END
>  <Energy>  (1172) 
181.59355761324494

>  <compound_id>  (1172) 
9276

>  <target_id>  (1172) 
1

>  <reference_id>  (1172) 
95

>  <inspiration_ids>  (1172) 
[103, 95]

>  <energy_score>  (1172) 
24.099403732709106

>  <distance_score>  (1172) 
10.182711525305821

>  <path>  (1172) 
/opt/xchem-fragalysis-2/maxwin/BulkDock/SCRATCH/511014/C9276-P95/C9276-P95.minimised.mol

>  <scratch_subdir>  (1172) 
/opt/xchem-fragalysis-2/maxwin/BulkDock/SCRATCH/511014/C9276-P95

>  <fragmenstein_runtime>  (1172) 
16.527511596679688

>  <fragmenstein_outcome>  (1172) 
too moved

>  <fragmenstein_mode>  (1172) 
expansion

>  <fragmenstein_error>  (1172) 


$$$$
C9278-P103
     RDKit          3D

 56 59  0  0  0  0  0  0  0  0999 V2000
   -4.5917    0.0999    9.0238 C   0  0  0  0  0  0  0  0  0  0  0  0
   -4.5644   -0.7868    7.8554 C   0  0  0  0  0  0  0  0  0  0  0  0
   -5.0848    0.3234    6.7534 C   0  0  0  0  0  0  0  0  0  0  0  0
   -2.8428   -1.3287    8.3110 C   0  0  0  0  0  0  0  0  0  0  0  0
   -1.4483   -0.7539    9.3819 N   0  0  0  0  0  0  0  0  0  0  0  0
    0.4466   -1.1744   10.1581 C   0  0  0  0  0  0  0  0  0  0  0  0
    2.0984   -1.1219   11.2720 C   0  0  0  0  0  0  0  0  0  0  0  0
    3.5221   -0.0154   11.2476 C   0  0  0  0  0  0  0  0  0  0  0  0
    5.2087   -0.6629   11.7655 C   0  0  0  0  0  0  0  0  0  0  0  0
    6.0038   -2.0419   12.4475 C   0  0  0  0  0  0  0  0  0  0  0  0
    7.1208   -2.1744   13.7320 N   0  0  0  0  0  0  0  0  0  0  0  0
    6.5137   -2.2496   14.9193 C   0  0  0  0  0  0  0  0  0  0  0  0
    6.9639   -1.3243   15.7719 N   0  0  0  0  0  0  0  0  0  0  0  0
    8.1381   -0.8695   15.3890 C   0  0  0  0  0  0  0  0  0  0  0  0
    9.0301    0.0629   15.9244 C   0  0  0  0  0  0  0  0  0  0  0  0
   10.3819   -0.1787   15.7173 C   0  0  0  0  0  0  0  0  0  0  0  0
   10.7493   -1.4154   15.2222 C   0  0  0  0  0  0  0  0  0  0  0  0
    9.7708   -2.2852   14.7003 C   0  0  0  0  0  0  0  0  0  0  0  0
    8.4433   -1.7559   14.4064 C   0  0  0  0  0  0  0  0  0  0  0  0
    4.6181   -3.0562   12.2391 C   0  0  0  0  0  0  0  0  0  0  0  0
    3.1303   -2.6445   11.4588 C   0  0  0  0  0  0  0  0  0  0  0  0
   -6.1157   -1.3937    7.8557 C   0  0  0  0  0  0  0  0  0  0  0  0
   -6.7667   -1.2418    8.8575 O   0  0  0  0  0  0  0  0  0  0  0  0
   -6.4874   -1.9377    6.5788 N   0  0  0  0  0  0  0  0  0  0  0  0
   -6.2350   -3.4082    6.5450 C   0  0  0  0  0  0  0  0  0  0  0  0
   -7.3684   -4.2617    7.1121 C   0  0  0  0  0  0  0  0  0  0  0  0
   -8.5268   -3.3741    6.9149 C   0  0  0  0  0  0  0  0  0  0  0  0
   -7.8219   -2.3821    6.0518 C   0  0  0  0  0  0  0  0  0  0  0  0
   -5.5772    0.5679    9.0602 H   0  0  0  0  0  0  0  0  0  0  0  0
   -3.7841    0.8320    8.9458 H   0  0  0  0  0  0  0  0  0  0  0  0
   -4.4613   -0.4467    9.9341 H   0  0  0  0  0  0  0  0  0  0  0  0
   -5.3231    1.2977    7.2055 H   0  0  0  0  0  0  0  0  0  0  0  0
   -6.0718    0.1527    6.3029 H   0  0  0  0  0  0  0  0  0  0  0  0
   -4.5053    0.4521    5.8525 H   0  0  0  0  0  0  0  0  0  0  0  0
   -2.3690   -1.0975    7.3727 H   0  0  0  0  0  0  0  0  0  0  0  0
   -2.9026   -2.4017    8.4501 H   0  0  0  0  0  0  0  0  0  0  0  0
   -1.0151   -1.1188    8.5352 H   0  0  0  0  0  0  0  0  0  0  0  0
    1.0865   -0.4239    9.6962 H   0  0  0  0  0  0  0  0  0  0  0  0
    0.0560   -0.8742   11.1158 H   0  0  0  0  0  0  0  0  0  0  0  0
    3.4559    1.0273   10.9301 H   0  0  0  0  0  0  0  0  0  0  0  0
    5.6234   -0.0643   12.5672 H   0  0  0  0  0  0  0  0  0  0  0  0
    5.6046   -2.8135   15.0151 H   0  0  0  0  0  0  0  0  0  0  0  0
    8.6838    0.8572   16.5771 H   0  0  0  0  0  0  0  0  0  0  0  0
   11.1337    0.5104   16.0895 H   0  0  0  0  0  0  0  0  0  0  0  0
   11.7922   -1.7238   15.2265 H   0  0  0  0  0  0  0  0  0  0  0  0
   10.1343   -3.2404   14.3575 H   0  0  0  0  0  0  0  0  0  0  0  0
    4.7836   -4.1066   11.9783 H   0  0  0  0  0  0  0  0  0  0  0  0
    2.7581   -3.5652   10.9901 H   0  0  0  0  0  0  0  0  0  0  0  0
   -5.2998   -3.5776    7.0849 H   0  0  0  0  0  0  0  0  0  0  0  0
   -6.0252   -3.7213    5.5129 H   0  0  0  0  0  0  0  0  0  0  0  0
   -7.4618   -5.1846    6.5409 H   0  0  0  0  0  0  0  0  0  0  0  0
   -7.2662   -4.5258    8.1610 H   0  0  0  0  0  0  0  0  0  0  0  0
   -9.3739   -3.8482    6.4144 H   0  0  0  0  0  0  0  0  0  0  0  0
   -8.8636   -2.9305    7.8569 H   0  0  0  0  0  0  0  0  0  0  0  0
   -7.7540   -2.6712    4.9887 H   0  0  0  0  0  0  0  0  0  0  0  0
   -8.4286   -1.4661    6.0420 H   0  0  0  0  0  0  0  0  0  0  0  0
  1  2  1  0
  2  3  1  0
  2  4  1  0
  4  5  1  0
  5  6  1  0
  6  7  1  0
  7  8  2  0
  8  9  1  0
  9 10  2  0
 10 11  1  0
 11 12  1  0
 12 13  2  0
 13 14  1  0
 14 15  2  0
 15 16  1  0
 16 17  2  0
 17 18  1  0
 18 19  2  0
 10 20  1  0
 20 21  2  0
  2 22  1  0
 22 23  2  0
 22 24  1  0
 24 25  1  0
 25 26  1  0
 26 27  1  0
 27 28  1  0
 21  7  1  0
 28 24  1  0
 19 11  1  0
 19 14  1  0
  1 29  1  0
  1 30  1  0
  1 31  1  0
  3 32  1  0
  3 33  1  0
  3 34  1  0
  4 35  1  0
  4 36  1  0
  5 37  1  0
  6 38  1  0
  6 39  1  0
  8 40  1  0
  9 41  1  0
 12 42  1  0
 15 43  1  0
 16 44  1  0
 17 45  1  0
 18 46  1  0
 20 47  1  0
 21 48  1  0
 25 49  1  0
 25 50  1  0
 26 51  1  0
 26 52  1  0
 27 53  1  0
 27 54  1  0
 28 55  1  0
 28 56  1  0
M  END
>  <Energy>  (1173) 
1091.3785791180806

>  <compound_id>  (1173) 
9278

>  <target_id>  (1173) 
1

>  <reference_id>  (1173) 
103

>  <inspiration_ids>  (1173) 
[103, 95]

>  <energy_score>  (1173) 
963.5337088242785

>  <distance_score>  (1173) 
5.666854293930567

>  <path>  (1173) 
/opt/xchem-fragalysis-2/maxwin/BulkDock/SCRATCH/511014/C9278-P103/C9278-P103.minimised.mol

>  <scratch_subdir>  (1173) 
/opt/xchem-fragalysis-2/maxwin/BulkDock/SCRATCH/511014/C9278-P103

>  <fragmenstein_runtime>  (1173) 
19.14384126663208

>  <fragmenstein_outcome>  (1173) 
too moved

>  <fragmenstein_mode>  (1173) 
expansion

>  <fragmenstein_error>  (1173) 


$$$$
C9278-P95
     RDKit          3D

 56 59  0  0  0  0  0  0  0  0999 V2000
   -3.4679   -2.9487    7.8111 C   0  0  0  0  0  0  0  0  0  0  0  0
   -3.2056   -1.4174    8.0333 C   0  0  0  0  0  0  0  0  0  0  0  0
   -4.2659   -0.5872    8.7905 C   0  0  0  0  0  0  0  0  0  0  0  0
   -1.5699   -1.2150    9.1165 C   0  0  0  0  0  0  0  0  0  0  0  0
    0.3998   -1.3446    9.7968 N   0  0  0  0  0  0  0  0  0  0  0  0
    1.9263   -1.6446   11.0436 C   0  0  0  0  0  0  0  0  0  0  0  0
    3.5886   -2.7584   11.6587 C   0  0  0  0  0  0  0  0  0  0  0  0
    5.2893   -2.3746   11.9105 C   0  0  0  0  0  0  0  0  0  0  0  0
    6.4941   -1.8249   12.9659 C   0  0  0  0  0  0  0  0  0  0  0  0
    6.4345   -2.1338   14.2510 C   0  0  0  0  0  0  0  0  0  0  0  0
    7.6146   -1.6256   15.0634 N   0  0  0  0  0  0  0  0  0  0  0  0
    7.5163   -0.5031   15.8682 C   0  0  0  0  0  0  0  0  0  0  0  0
    8.4832    0.3682   15.7420 N   0  0  0  0  0  0  0  0  0  0  0  0
    9.4695   -0.3353   15.1584 C   0  0  0  0  0  0  0  0  0  0  0  0
   10.8046    0.0575   14.9577 C   0  0  0  0  0  0  0  0  0  0  0  0
   11.7643   -0.9121   14.6725 C   0  0  0  0  0  0  0  0  0  0  0  0
   11.3929   -2.2444   14.6195 C   0  0  0  0  0  0  0  0  0  0  0  0
   10.0447   -2.6128   14.7423 C   0  0  0  0  0  0  0  0  0  0  0  0
    9.0342   -1.6407   14.8980 C   0  0  0  0  0  0  0  0  0  0  0  0
    4.9872   -2.7096   14.4174 C   0  0  0  0  0  0  0  0  0  0  0  0
    3.6107   -3.1642   13.1648 C   0  0  0  0  0  0  0  0  0  0  0  0
   -3.9202   -1.3324    6.3705 C   0  0  0  0  0  0  0  0  0  0  0  0
   -3.2005   -1.2007    5.4234 O   0  0  0  0  0  0  0  0  0  0  0  0
   -5.3754   -1.5523    6.4318 N   0  0  0  0  0  0  0  0  0  0  0  0
   -6.1219   -0.2134    6.5049 C   0  0  0  0  0  0  0  0  0  0  0  0
   -6.3053    0.4614    5.1539 C   0  0  0  0  0  0  0  0  0  0  0  0
   -6.3954   -0.7287    4.2781 C   0  0  0  0  0  0  0  0  0  0  0  0
   -6.3730   -1.7886    5.3415 C   0  0  0  0  0  0  0  0  0  0  0  0
   -3.1373   -3.5733    8.6126 H   0  0  0  0  0  0  0  0  0  0  0  0
   -4.5049   -3.2188    7.5869 H   0  0  0  0  0  0  0  0  0  0  0  0
   -2.9648   -3.3552    6.9393 H   0  0  0  0  0  0  0  0  0  0  0  0
   -5.2736   -0.9888    8.6905 H   0  0  0  0  0  0  0  0  0  0  0  0
   -4.1876   -0.4349    9.8467 H   0  0  0  0  0  0  0  0  0  0  0  0
   -4.2139    0.4433    8.4421 H   0  0  0  0  0  0  0  0  0  0  0  0
   -1.7480   -0.2619    8.6345 H   0  0  0  0  0  0  0  0  0  0  0  0
   -1.5768   -2.0723    8.5747 H   0  0  0  0  0  0  0  0  0  0  0  0
    0.9047   -1.2846    8.9082 H   0  0  0  0  0  0  0  0  0  0  0  0
    2.3986   -0.6662   11.0794 H   0  0  0  0  0  0  0  0  0  0  0  0
    1.3203   -1.2966   11.9084 H   0  0  0  0  0  0  0  0  0  0  0  0
    5.4677   -1.0962   11.8854 H   0  0  0  0  0  0  0  0  0  0  0  0
    7.2710   -1.2225   12.5040 H   0  0  0  0  0  0  0  0  0  0  0  0
    6.6649   -0.3848   16.4947 H   0  0  0  0  0  0  0  0  0  0  0  0
   11.0917    1.0903   15.1252 H   0  0  0  0  0  0  0  0  0  0  0  0
   12.8081   -0.6301   14.5654 H   0  0  0  0  0  0  0  0  0  0  0  0
   12.1480   -3.0174   14.4892 H   0  0  0  0  0  0  0  0  0  0  0  0
    9.8170   -3.6654   14.7906 H   0  0  0  0  0  0  0  0  0  0  0  0
    4.7695   -3.1056   15.4208 H   0  0  0  0  0  0  0  0  0  0  0  0
    2.7456   -3.7243   13.5451 H   0  0  0  0  0  0  0  0  0  0  0  0
   -7.0829   -0.3715    7.0242 H   0  0  0  0  0  0  0  0  0  0  0  0
   -5.6042    0.5100    7.1245 H   0  0  0  0  0  0  0  0  0  0  0  0
   -7.2034    1.0859    5.1356 H   0  0  0  0  0  0  0  0  0  0  0  0
   -5.4501    1.0845    4.8768 H   0  0  0  0  0  0  0  0  0  0  0  0
   -7.3021   -0.7611    3.6684 H   0  0  0  0  0  0  0  0  0  0  0  0
   -5.5253   -0.8014    3.6167 H   0  0  0  0  0  0  0  0  0  0  0  0
   -6.0526   -2.7273    4.8692 H   0  0  0  0  0  0  0  0  0  0  0  0
   -7.3655   -2.0178    5.7639 H   0  0  0  0  0  0  0  0  0  0  0  0
  1  2  1  0
  2  3  1  0
  2  4  1  0
  4  5  1  0
  5  6  1  0
  6  7  1  0
  7  8  2  0
  8  9  1  0
  9 10  2  0
 10 11  1  0
 11 12  1  0
 12 13  2  0
 13 14  1  0
 14 15  2  0
 15 16  1  0
 16 17  2  0
 17 18  1  0
 18 19  2  0
 10 20  1  0
 20 21  2  0
  2 22  1  0
 22 23  2  0
 22 24  1  0
 24 25  1  0
 25 26  1  0
 26 27  1  0
 27 28  1  0
 21  7  1  0
 28 24  1  0
 19 11  1  0
 19 14  1  0
  1 29  1  0
  1 30  1  0
  1 31  1  0
  3 32  1  0
  3 33  1  0
  3 34  1  0
  4 35  1  0
  4 36  1  0
  5 37  1  0
  6 38  1  0
  6 39  1  0
  8 40  1  0
  9 41  1  0
 12 42  1  0
 15 43  1  0
 16 44  1  0
 17 45  1  0
 18 46  1  0
 20 47  1  0
 21 48  1  0
 25 49  1  0
 25 50  1  0
 26 51  1  0
 26 52  1  0
 27 53  1  0
 27 54  1  0
 28 55  1  0
 28 56  1  0
M  END
>  <Energy>  (1174) 
1074.930569818496

>  <compound_id>  (1174) 
9278

>  <target_id>  (1174) 
1

>  <reference_id>  (1174) 
95

>  <inspiration_ids>  (1174) 
[103, 95]

>  <energy_score>  (1174) 
947.0856995246917

>  <distance_score>  (1174) 
5.672788172994382

>  <path>  (1174) 
/opt/xchem-fragalysis-2/maxwin/BulkDock/SCRATCH/511014/C9278-P95/C9278-P95.minimised.mol

>  <scratch_subdir>  (1174) 
/opt/xchem-fragalysis-2/maxwin/BulkDock/SCRATCH/511014/C9278-P95

>  <fragmenstein_runtime>  (1174) 
21.71921730041504

>  <fragmenstein_outcome>  (1174) 
too moved

>  <fragmenstein_mode>  (1174) 
expansion

>  <fragmenstein_error>  (1174) 


$$$$
C9279-P103
     RDKit          3D

 44 47  0  0  0  0  0  0  0  0999 V2000
   -2.5554    0.4418    9.7080 O   0  0  0  0  0  0  0  0  0  0  0  0
   -2.4358   -0.7596    8.7273 C   0  0  0  0  0  0  0  0  0  0  0  0
   -3.6386   -1.1916    7.8818 C   0  0  0  0  0  0  0  0  0  0  0  0
   -5.0865   -0.9890    8.2013 N   0  0  0  0  0  0  0  0  0  0  0  0
   -5.9829   -1.7640    7.2870 C   0  0  0  0  0  0  0  0  0  0  0  0
   -6.8383   -0.8080    6.4650 C   0  0  0  0  0  0  0  0  0  0  0  0
   -6.2049    0.5329    6.6953 C   0  0  0  0  0  0  0  0  0  0  0  0
   -5.5747    0.3727    8.0641 C   0  0  0  0  0  0  0  0  0  0  0  0
   -1.3994   -1.0709    8.8612 N   0  0  0  0  0  0  0  0  0  0  0  0
    0.3200   -0.7429    9.9743 C   0  0  0  0  0  0  0  0  0  0  0  0
    1.7690    0.3196    9.5162 C   0  0  0  0  0  0  0  0  0  0  0  0
    3.3572    0.8801   10.1894 C   0  0  0  0  0  0  0  0  0  0  0  0
    3.9199    0.0809   11.1791 C   0  0  0  0  0  0  0  0  0  0  0  0
    5.5149   -0.7011   11.7626 N   0  0  0  0  0  0  0  0  0  0  0  0
    6.7368   -0.7576   11.0538 C   0  0  0  0  0  0  0  0  0  0  0  0
    7.7487   -0.4364   11.7972 N   0  0  0  0  0  0  0  0  0  0  0  0
    7.6063   -0.8577   12.9804 C   0  0  0  0  0  0  0  0  0  0  0  0
    8.5052   -0.6215   14.1036 C   0  0  0  0  0  0  0  0  0  0  0  0
    8.3849   -1.4992   15.1094 C   0  0  0  0  0  0  0  0  0  0  0  0
    7.3584   -2.4088   14.9654 C   0  0  0  0  0  0  0  0  0  0  0  0
    6.2729   -2.3917   14.0460 C   0  0  0  0  0  0  0  0  0  0  0  0
    6.4090   -1.5254   12.9480 C   0  0  0  0  0  0  0  0  0  0  0  0
    2.4344   -0.5231   11.6487 C   0  0  0  0  0  0  0  0  0  0  0  0
    0.8586   -0.9895   11.1608 C   0  0  0  0  0  0  0  0  0  0  0  0
   -3.4359   -0.7575    6.9177 H   0  0  0  0  0  0  0  0  0  0  0  0
   -3.5132   -2.2770    7.8328 H   0  0  0  0  0  0  0  0  0  0  0  0
   -5.4435   -2.4898    6.6728 H   0  0  0  0  0  0  0  0  0  0  0  0
   -6.7126   -2.3426    7.8453 H   0  0  0  0  0  0  0  0  0  0  0  0
   -7.8662   -0.7996    6.8491 H   0  0  0  0  0  0  0  0  0  0  0  0
   -6.8862   -1.0730    5.4063 H   0  0  0  0  0  0  0  0  0  0  0  0
   -5.4482    0.7350    5.9339 H   0  0  0  0  0  0  0  0  0  0  0  0
   -6.9339    1.3482    6.6659 H   0  0  0  0  0  0  0  0  0  0  0  0
   -4.7916    1.0956    8.2189 H   0  0  0  0  0  0  0  0  0  0  0  0
   -6.3548    0.5294    8.8171 H   0  0  0  0  0  0  0  0  0  0  0  0
   -0.6201   -1.6524    8.7361 H   0  0  0  0  0  0  0  0  0  0  0  0
    1.8841    0.9239    8.5845 H   0  0  0  0  0  0  0  0  0  0  0  0
    3.9382    1.5285    9.5301 H   0  0  0  0  0  0  0  0  0  0  0  0
    6.7933   -0.6544   10.0080 H   0  0  0  0  0  0  0  0  0  0  0  0
    9.3620    0.0360   14.0034 H   0  0  0  0  0  0  0  0  0  0  0  0
    9.1607   -1.5459   15.8531 H   0  0  0  0  0  0  0  0  0  0  0  0
    7.4311   -3.2512   15.6010 H   0  0  0  0  0  0  0  0  0  0  0  0
    5.4503   -3.0897   14.1415 H   0  0  0  0  0  0  0  0  0  0  0  0
    2.1117    0.0462   12.6059 H   0  0  0  0  0  0  0  0  0  0  0  0
    0.2255   -0.6344   12.0370 H   0  0  0  0  0  0  0  0  0  0  0  0
  1  2  2  0
  2  3  1  0
  3  4  1  0
  4  5  1  0
  5  6  1  0
  6  7  1  0
  7  8  1  0
  2  9  1  0
  9 10  1  0
 10 11  2  0
 11 12  1  0
 12 13  2  0
 13 14  1  0
 14 15  1  0
 15 16  2  0
 16 17  1  0
 17 18  2  0
 18 19  1  0
 19 20  2  0
 20 21  1  0
 21 22  2  0
 13 23  1  0
 23 24  2  0
  8  4  1  0
 24 10  1  0
 22 14  1  0
 22 17  1  0
  3 25  1  0
  3 26  1  0
  5 27  1  0
  5 28  1  0
  6 29  1  0
  6 30  1  0
  7 31  1  0
  7 32  1  0
  8 33  1  0
  8 34  1  0
  9 35  1  0
 11 36  1  0
 12 37  1  0
 15 38  1  0
 18 39  1  0
 19 40  1  0
 20 41  1  0
 21 42  1  0
 23 43  1  0
 24 44  1  0
M  END
>  <Energy>  (1175) 
894.10858039591528

>  <compound_id>  (1175) 
9279

>  <target_id>  (1175) 
1

>  <reference_id>  (1175) 
103

>  <inspiration_ids>  (1175) 
[103, 95]

>  <energy_score>  (1175) 
760.046026145171

>  <distance_score>  (1175) 
7.035735271905187

>  <path>  (1175) 
/opt/xchem-fragalysis-2/maxwin/BulkDock/SCRATCH/511014/C9279-P103/C9279-P103.minimised.mol

>  <scratch_subdir>  (1175) 
/opt/xchem-fragalysis-2/maxwin/BulkDock/SCRATCH/511014/C9279-P103

>  <fragmenstein_runtime>  (1175) 
13.510276317596436

>  <fragmenstein_outcome>  (1175) 
too moved

>  <fragmenstein_mode>  (1175) 
expansion

>  <fragmenstein_error>  (1175) 


$$$$
C9279-P95
     RDKit          3D

 44 47  0  0  0  0  0  0  0  0999 V2000
   -2.6606    0.8843    8.5886 O   0  0  0  0  0  0  0  0  0  0  0  0
   -2.5797   -0.3161    8.5420 C   0  0  0  0  0  0  0  0  0  0  0  0
   -3.6590   -1.2919    7.9684 C   0  0  0  0  0  0  0  0  0  0  0  0
   -4.7828   -0.7915    7.1582 N   0  0  0  0  0  0  0  0  0  0  0  0
   -5.4842   -1.8951    6.4797 C   0  0  0  0  0  0  0  0  0  0  0  0
   -6.9155   -1.4169    6.2677 C   0  0  0  0  0  0  0  0  0  0  0  0
   -6.9852   -0.0698    6.9646 C   0  0  0  0  0  0  0  0  0  0  0  0
   -5.8092   -0.0924    7.9261 C   0  0  0  0  0  0  0  0  0  0  0  0
   -1.4135   -1.2892    8.9897 N   0  0  0  0  0  0  0  0  0  0  0  0
    0.4251   -0.9223    9.6796 C   0  0  0  0  0  0  0  0  0  0  0  0
    0.9821   -1.4599   10.8414 C   0  0  0  0  0  0  0  0  0  0  0  0
    2.4290   -0.6444   11.2786 C   0  0  0  0  0  0  0  0  0  0  0  0
    3.9350    0.2030   11.0132 C   0  0  0  0  0  0  0  0  0  0  0  0
    5.5678   -0.5213   11.8429 N   0  0  0  0  0  0  0  0  0  0  0  0
    6.8886   -0.5957   11.1233 C   0  0  0  0  0  0  0  0  0  0  0  0
    7.8399   -0.0445   11.8216 N   0  0  0  0  0  0  0  0  0  0  0  0
    7.6751   -0.5145   13.0014 C   0  0  0  0  0  0  0  0  0  0  0  0
    8.5952   -0.2486   14.0855 C   0  0  0  0  0  0  0  0  0  0  0  0
    8.6617   -1.2260   14.9976 C   0  0  0  0  0  0  0  0  0  0  0  0
    7.6758   -2.1647   14.8703 C   0  0  0  0  0  0  0  0  0  0  0  0
    6.4437   -2.0396   14.1441 C   0  0  0  0  0  0  0  0  0  0  0  0
    6.4464   -1.2215   13.0227 C   0  0  0  0  0  0  0  0  0  0  0  0
    3.2000    1.1346   10.1108 C   0  0  0  0  0  0  0  0  0  0  0  0
    1.6775    0.4610    9.2743 C   0  0  0  0  0  0  0  0  0  0  0  0
   -3.1272   -2.0296    7.3594 H   0  0  0  0  0  0  0  0  0  0  0  0
   -4.0733   -1.7772    8.8334 H   0  0  0  0  0  0  0  0  0  0  0  0
   -4.9979   -2.1296    5.5268 H   0  0  0  0  0  0  0  0  0  0  0  0
   -5.4991   -2.8109    7.0818 H   0  0  0  0  0  0  0  0  0  0  0  0
   -7.6215   -2.1208    6.7229 H   0  0  0  0  0  0  0  0  0  0  0  0
   -7.1657   -1.3232    5.2061 H   0  0  0  0  0  0  0  0  0  0  0  0
   -6.8599    0.7360    6.2308 H   0  0  0  0  0  0  0  0  0  0  0  0
   -7.9400    0.0837    7.4762 H   0  0  0  0  0  0  0  0  0  0  0  0
   -6.0911   -0.6341    8.8338 H   0  0  0  0  0  0  0  0  0  0  0  0
   -5.5047    0.9200    8.1940 H   0  0  0  0  0  0  0  0  0  0  0  0
   -1.6447   -2.2179    8.7347 H   0  0  0  0  0  0  0  0  0  0  0  0
    0.2322   -1.3384   11.6469 H   0  0  0  0  0  0  0  0  0  0  0  0
    2.0133   -0.0002   12.1572 H   0  0  0  0  0  0  0  0  0  0  0  0
    6.8472   -0.4248   10.0701 H   0  0  0  0  0  0  0  0  0  0  0  0
    9.4103    0.4537   13.9463 H   0  0  0  0  0  0  0  0  0  0  0  0
    9.5269   -1.3340   15.6342 H   0  0  0  0  0  0  0  0  0  0  0  0
    7.8940   -3.0806   15.3726 H   0  0  0  0  0  0  0  0  0  0  0  0
    5.6051   -2.6380   14.4400 H   0  0  0  0  0  0  0  0  0  0  0  0
    3.6768    1.9800    9.6133 H   0  0  0  0  0  0  0  0  0  0  0  0
    1.5888    1.1965    8.4561 H   0  0  0  0  0  0  0  0  0  0  0  0
  1  2  2  0
  2  3  1  0
  3  4  1  0
  4  5  1  0
  5  6  1  0
  6  7  1  0
  7  8  1  0
  2  9  1  0
  9 10  1  0
 10 11  2  0
 11 12  1  0
 12 13  2  0
 13 14  1  0
 14 15  1  0
 15 16  2  0
 16 17  1  0
 17 18  2  0
 18 19  1  0
 19 20  2  0
 20 21  1  0
 21 22  2  0
 13 23  1  0
 23 24  2  0
  8  4  1  0
 24 10  1  0
 22 14  1  0
 22 17  1  0
  3 25  1  0
  3 26  1  0
  5 27  1  0
  5 28  1  0
  6 29  1  0
  6 30  1  0
  7 31  1  0
  7 32  1  0
  8 33  1  0
  8 34  1  0
  9 35  1  0
 11 36  1  0
 12 37  1  0
 15 38  1  0
 18 39  1  0
 19 40  1  0
 20 41  1  0
 21 42  1  0
 23 43  1  0
 24 44  1  0
M  END
>  <Energy>  (1176) 
785.58617893288283

>  <compound_id>  (1176) 
9279

>  <target_id>  (1176) 
1

>  <reference_id>  (1176) 
95

>  <inspiration_ids>  (1176) 
[103, 95]

>  <energy_score>  (1176) 
651.5236246821438

>  <distance_score>  (1176) 
6.898307473061468

>  <path>  (1176) 
/opt/xchem-fragalysis-2/maxwin/BulkDock/SCRATCH/511014/C9279-P95/C9279-P95.minimised.mol

>  <scratch_subdir>  (1176) 
/opt/xchem-fragalysis-2/maxwin/BulkDock/SCRATCH/511014/C9279-P95

>  <fragmenstein_runtime>  (1176) 
12.134962558746338

>  <fragmenstein_outcome>  (1176) 
too moved

>  <fragmenstein_mode>  (1176) 
expansion

>  <fragmenstein_error>  (1176) 


$$$$
C9280-P103
     RDKit          3D

 44 47  0  0  0  0  0  0  0  0999 V2000
   -3.7696   -2.4061    7.7171 O   0  0  0  0  0  0  0  0  0  0  0  0
   -3.7414   -1.2384    7.8033 C   0  0  0  0  0  0  0  0  0  0  0  0
   -2.6804   -0.3285    8.4420 N   0  0  0  0  0  0  0  0  0  0  0  0
   -1.3665   -0.6940    9.2720 C   0  0  0  0  0  0  0  0  0  0  0  0
    0.6468   -0.4799    9.9252 C   0  0  0  0  0  0  0  0  0  0  0  0
    1.2686   -1.1927   10.7953 C   0  0  0  0  0  0  0  0  0  0  0  0
    2.6405   -0.6678   11.5313 C   0  0  0  0  0  0  0  0  0  0  0  0
    4.2612   -0.0398   11.1889 C   0  0  0  0  0  0  0  0  0  0  0  0
    5.8511   -0.6944   12.0483 N   0  0  0  0  0  0  0  0  0  0  0  0
    6.2258   -2.0146   12.3858 C   0  0  0  0  0  0  0  0  0  0  0  0
    6.2643   -2.3454   13.6440 N   0  0  0  0  0  0  0  0  0  0  0  0
    7.3669   -1.7130   13.8242 C   0  0  0  0  0  0  0  0  0  0  0  0
    8.2162   -1.8815   14.9296 C   0  0  0  0  0  0  0  0  0  0  0  0
    9.3136   -1.0929   15.2128 C   0  0  0  0  0  0  0  0  0  0  0  0
    9.5604   -0.0498   14.3745 C   0  0  0  0  0  0  0  0  0  0  0  0
    8.7227    0.1590   13.2319 C   0  0  0  0  0  0  0  0  0  0  0  0
    7.4597   -0.6417   12.7727 C   0  0  0  0  0  0  0  0  0  0  0  0
    3.6622    0.9631   10.3002 C   0  0  0  0  0  0  0  0  0  0  0  0
    2.0297    0.7229    9.5736 C   0  0  0  0  0  0  0  0  0  0  0  0
   -4.8228   -0.2636    7.3891 N   0  0  0  0  0  0  0  0  0  0  0  0
   -6.1572   -0.4900    6.6651 C   0  0  0  0  0  0  0  0  0  0  0  0
   -7.1832    0.5986    6.8719 C   0  0  0  0  0  0  0  0  0  0  0  0
   -6.7585    1.0573    8.2103 C   0  0  0  0  0  0  0  0  0  0  0  0
   -5.7307   -0.0041    8.5109 C   0  0  0  0  0  0  0  0  0  0  0  0
   -2.9223    0.6368    8.2718 H   0  0  0  0  0  0  0  0  0  0  0  0
   -1.5041   -1.5796    8.6309 H   0  0  0  0  0  0  0  0  0  0  0  0
   -2.0648   -0.1461    9.8679 H   0  0  0  0  0  0  0  0  0  0  0  0
    1.5895   -2.0109   10.1824 H   0  0  0  0  0  0  0  0  0  0  0  0
    3.0747   -1.9697   11.5047 H   0  0  0  0  0  0  0  0  0  0  0  0
    6.9342   -2.3415   11.6177 H   0  0  0  0  0  0  0  0  0  0  0  0
    7.9240   -2.7362   15.4983 H   0  0  0  0  0  0  0  0  0  0  0  0
   10.0070   -1.3281   16.0028 H   0  0  0  0  0  0  0  0  0  0  0  0
   10.4329    0.5815   14.5264 H   0  0  0  0  0  0  0  0  0  0  0  0
    9.1593    0.9873   12.6997 H   0  0  0  0  0  0  0  0  0  0  0  0
    4.2466    1.7493    9.8221 H   0  0  0  0  0  0  0  0  0  0  0  0
    1.9768    1.5076    8.8011 H   0  0  0  0  0  0  0  0  0  0  0  0
   -5.9854   -0.4770    5.5950 H   0  0  0  0  0  0  0  0  0  0  0  0
   -6.5308   -1.5059    6.8755 H   0  0  0  0  0  0  0  0  0  0  0  0
   -8.2037    0.2060    6.8419 H   0  0  0  0  0  0  0  0  0  0  0  0
   -7.0948    1.3990    6.1296 H   0  0  0  0  0  0  0  0  0  0  0  0
   -7.5777    1.0720    8.9328 H   0  0  0  0  0  0  0  0  0  0  0  0
   -6.3217    2.0568    8.1293 H   0  0  0  0  0  0  0  0  0  0  0  0
   -5.0625    0.2086    9.3241 H   0  0  0  0  0  0  0  0  0  0  0  0
   -6.2171   -0.9315    8.8577 H   0  0  0  0  0  0  0  0  0  0  0  0
  1  2  2  0
  2  3  1  0
  3  4  1  0
  4  5  1  0
  5  6  2  0
  6  7  1  0
  7  8  2  0
  8  9  1  0
  9 10  1  0
 10 11  2  0
 11 12  1  0
 12 13  2  0
 13 14  1  0
 14 15  2  0
 15 16  1  0
 16 17  2  0
  8 18  1  0
 18 19  2  0
  2 20  1  0
 20 21  1  0
 21 22  1  0
 22 23  1  0
 23 24  1  0
 19  5  1  0
 24 20  1  0
 17  9  1  0
 17 12  1  0
  3 25  1  0
  4 26  1  0
  4 27  1  0
  6 28  1  0
  7 29  1  0
 10 30  1  0
 13 31  1  0
 14 32  1  0
 15 33  1  0
 16 34  1  0
 18 35  1  0
 19 36  1  0
 21 37  1  0
 21 38  1  0
 22 39  1  0
 22 40  1  0
 23 41  1  0
 23 42  1  0
 24 43  1  0
 24 44  1  0
M  END
>  <Energy>  (1177) 
892.70315038831734

>  <compound_id>  (1177) 
9280

>  <target_id>  (1177) 
1

>  <reference_id>  (1177) 
103

>  <inspiration_ids>  (1177) 
[103, 95]

>  <energy_score>  (1177) 
879.565616666035

>  <distance_score>  (1177) 
6.875253446678376

>  <path>  (1177) 
/opt/xchem-fragalysis-2/maxwin/BulkDock/SCRATCH/511014/C9280-P103/C9280-P103.minimised.mol

>  <scratch_subdir>  (1177) 
/opt/xchem-fragalysis-2/maxwin/BulkDock/SCRATCH/511014/C9280-P103

>  <fragmenstein_runtime>  (1177) 
12.97638726234436

>  <fragmenstein_outcome>  (1177) 
too moved

>  <fragmenstein_mode>  (1177) 
expansion

>  <fragmenstein_error>  (1177) 


$$$$
C9280-P95
     RDKit          3D

 44 47  0  0  0  0  0  0  0  0999 V2000
   -4.5612   -0.1499    8.7294 O   0  0  0  0  0  0  0  0  0  0  0  0
   -4.1270   -1.1476    8.2881 C   0  0  0  0  0  0  0  0  0  0  0  0
   -2.7406   -1.7354    8.3949 N   0  0  0  0  0  0  0  0  0  0  0  0
   -1.4386   -1.1494    9.0269 C   0  0  0  0  0  0  0  0  0  0  0  0
    0.5898   -1.0232    9.6534 C   0  0  0  0  0  0  0  0  0  0  0  0
    1.4575   -1.5857   10.7662 C   0  0  0  0  0  0  0  0  0  0  0  0
    3.1688   -1.6782   10.9353 C   0  0  0  0  0  0  0  0  0  0  0  0
    4.2495   -0.2253   10.9970 C   0  0  0  0  0  0  0  0  0  0  0  0
    5.8794   -0.6473   11.9366 N   0  0  0  0  0  0  0  0  0  0  0  0
    6.0092   -1.9278   12.3679 C   0  0  0  0  0  0  0  0  0  0  0  0
    6.3570   -2.1182   13.6390 N   0  0  0  0  0  0  0  0  0  0  0  0
    7.3972   -1.3564   13.7233 C   0  0  0  0  0  0  0  0  0  0  0  0
    8.3113   -1.3331   14.8066 C   0  0  0  0  0  0  0  0  0  0  0  0
    9.3076   -0.3873   14.9530 C   0  0  0  0  0  0  0  0  0  0  0  0
    9.4458    0.5218   13.9414 C   0  0  0  0  0  0  0  0  0  0  0  0
    8.5590    0.4831   12.8116 C   0  0  0  0  0  0  0  0  0  0  0  0
    7.3664   -0.4269   12.6194 C   0  0  0  0  0  0  0  0  0  0  0  0
    3.2497    0.9783   10.3651 C   0  0  0  0  0  0  0  0  0  0  0  0
    1.7626    0.4326    9.3765 C   0  0  0  0  0  0  0  0  0  0  0  0
   -4.7751   -2.1223    7.3866 N   0  0  0  0  0  0  0  0  0  0  0  0
   -6.1882   -2.1896    6.8647 C   0  0  0  0  0  0  0  0  0  0  0  0
   -6.3515   -3.1006    5.6810 C   0  0  0  0  0  0  0  0  0  0  0  0
   -5.1206   -2.7162    4.9454 C   0  0  0  0  0  0  0  0  0  0  0  0
   -4.4985   -1.7672    5.9473 C   0  0  0  0  0  0  0  0  0  0  0  0
   -2.7324   -2.6517    7.9642 H   0  0  0  0  0  0  0  0  0  0  0  0
   -1.4723   -1.2511    7.8991 H   0  0  0  0  0  0  0  0  0  0  0  0
   -1.9758   -0.1700    8.9097 H   0  0  0  0  0  0  0  0  0  0  0  0
    1.0319   -1.2369   11.7373 H   0  0  0  0  0  0  0  0  0  0  0  0
    3.6026   -2.6133   11.3017 H   0  0  0  0  0  0  0  0  0  0  0  0
    5.4195   -2.7066   11.8845 H   0  0  0  0  0  0  0  0  0  0  0  0
    8.1934   -2.1249   15.5148 H   0  0  0  0  0  0  0  0  0  0  0  0
   10.0025   -0.4187   15.7800 H   0  0  0  0  0  0  0  0  0  0  0  0
   10.2781    1.2202   13.9386 H   0  0  0  0  0  0  0  0  0  0  0  0
    8.9279    1.1011   12.0210 H   0  0  0  0  0  0  0  0  0  0  0  0
    3.6530    1.9702   10.1693 H   0  0  0  0  0  0  0  0  0  0  0  0
    1.6002    1.2687    8.6811 H   0  0  0  0  0  0  0  0  0  0  0  0
   -6.8181   -2.5482    7.6802 H   0  0  0  0  0  0  0  0  0  0  0  0
   -6.5842   -1.1725    6.6941 H   0  0  0  0  0  0  0  0  0  0  0  0
   -7.2724   -2.9049    5.1248 H   0  0  0  0  0  0  0  0  0  0  0  0
   -6.3440   -4.1512    5.9798 H   0  0  0  0  0  0  0  0  0  0  0  0
   -5.3254   -2.2161    3.9938 H   0  0  0  0  0  0  0  0  0  0  0  0
   -4.4760   -3.5695    4.7402 H   0  0  0  0  0  0  0  0  0  0  0  0
   -4.7881   -0.7206    5.7486 H   0  0  0  0  0  0  0  0  0  0  0  0
   -3.4193   -1.7498    5.8119 H   0  0  0  0  0  0  0  0  0  0  0  0
  1  2  2  0
  2  3  1  0
  3  4  1  0
  4  5  1  0
  5  6  2  0
  6  7  1  0
  7  8  2  0
  8  9  1  0
  9 10  1  0
 10 11  2  0
 11 12  1  0
 12 13  2  0
 13 14  1  0
 14 15  2  0
 15 16  1  0
 16 17  2  0
  8 18  1  0
 18 19  2  0
  2 20  1  0
 20 21  1  0
 21 22  1  0
 22 23  1  0
 23 24  1  0
 19  5  1  0
 24 20  1  0
 17  9  1  0
 17 12  1  0
  3 25  1  0
  4 26  1  0
  4 27  1  0
  6 28  1  0
  7 29  1  0
 10 30  1  0
 13 31  1  0
 14 32  1  0
 15 33  1  0
 16 34  1  0
 18 35  1  0
 19 36  1  0
 21 37  1  0
 21 38  1  0
 22 39  1  0
 22 40  1  0
 23 41  1  0
 23 42  1  0
 24 43  1  0
 24 44  1  0
M  END
>  <Energy>  (1178) 
822.46876896671768

>  <compound_id>  (1178) 
9280

>  <target_id>  (1178) 
1

>  <reference_id>  (1178) 
95

>  <inspiration_ids>  (1178) 
[103, 95]

>  <energy_score>  (1178) 
809.331235244442

>  <distance_score>  (1178) 
6.912929174766866

>  <path>  (1178) 
/opt/xchem-fragalysis-2/maxwin/BulkDock/SCRATCH/511014/C9280-P95/C9280-P95.minimised.mol

>  <scratch_subdir>  (1178) 
/opt/xchem-fragalysis-2/maxwin/BulkDock/SCRATCH/511014/C9280-P95

>  <fragmenstein_runtime>  (1178) 
12.015816450119019

>  <fragmenstein_outcome>  (1178) 
too moved

>  <fragmenstein_mode>  (1178) 
expansion

>  <fragmenstein_error>  (1178) 


$$$$
C9197-P103
     RDKit          3D

 34 36  0  0  0  0  0  0  0  0999 V2000
    2.5232   -4.3801   11.5626 O   0  0  0  0  0  0  0  0  0  0  0  0
    2.3884   -4.2674   12.7374 C   0  0  0  0  0  0  0  0  0  0  0  0
    0.6714   -4.9005   13.4434 N   0  0  0  0  0  0  0  0  0  0  0  0
   -1.0786   -5.5834   12.4809 C   0  0  0  0  0  0  0  0  0  0  0  0
   -1.9651   -5.6104   10.4699 C   0  0  0  0  0  0  0  0  0  0  0  0
   -3.8402   -5.5141    9.9456 C   0  0  0  0  0  0  0  0  0  0  0  0
   -3.7920   -4.5441    8.2456 C   0  0  0  0  0  0  0  0  0  0  0  0
   -3.0321   -3.3878    8.4858 C   0  0  0  0  0  0  0  0  0  0  0  0
   -3.1941   -4.5045    9.5617 N   0  0  0  0  0  0  0  0  0  0  0  0
    3.9391   -3.2596   13.4499 C   0  0  0  0  0  0  0  0  0  0  0  0
    5.1602   -2.8957   14.7580 C   0  0  0  0  0  0  0  0  0  0  0  0
    6.6338   -2.4001   15.0395 C   0  0  0  0  0  0  0  0  0  0  0  0
    7.6531   -0.8563   15.8410 Br  0  0  0  0  0  0  0  0  0  0  0  0
    7.5058   -2.6460   14.1379 C   0  0  0  0  0  0  0  0  0  0  0  0
    6.7300   -2.2254   13.1244 C   0  0  0  0  0  0  0  0  0  0  0  0
    7.2809   -1.8839   11.9443 N   0  0  0  0  0  0  0  0  0  0  0  0
    6.6737   -0.8859   11.4629 C   0  0  0  0  0  0  0  0  0  0  0  0
    5.5155   -1.0354   11.9947 N   0  0  0  0  0  0  0  0  0  0  0  0
    5.3688   -2.6724   12.6204 C   0  0  0  0  0  0  0  0  0  0  0  0
    0.6332   -4.6940   14.3724 H   0  0  0  0  0  0  0  0  0  0  0  0
   -1.0314   -6.6031   12.8665 H   0  0  0  0  0  0  0  0  0  0  0  0
   -1.7399   -4.9198   13.0498 H   0  0  0  0  0  0  0  0  0  0  0  0
   -1.4423   -6.3908    9.8097 H   0  0  0  0  0  0  0  0  0  0  0  0
   -4.3757   -6.4481   10.1797 H   0  0  0  0  0  0  0  0  0  0  0  0
   -4.3392   -5.1400   10.9255 H   0  0  0  0  0  0  0  0  0  0  0  0
   -3.3290   -5.1667    7.4501 H   0  0  0  0  0  0  0  0  0  0  0  0
   -4.6696   -3.9758    7.7850 H   0  0  0  0  0  0  0  0  0  0  0  0
   -3.4253   -2.3676    8.6109 H   0  0  0  0  0  0  0  0  0  0  0  0
   -2.5858   -3.4062    7.5276 H   0  0  0  0  0  0  0  0  0  0  0  0
   -3.4533   -3.8653   10.2776 H   0  0  0  0  0  0  0  0  0  0  0  0
    4.8424   -3.4621   15.6690 H   0  0  0  0  0  0  0  0  0  0  0  0
    8.5666   -2.5043   14.2431 H   0  0  0  0  0  0  0  0  0  0  0  0
    7.5503   -2.5822   11.2889 H   0  0  0  0  0  0  0  0  0  0  0  0
    6.8480   -0.4149   10.5324 H   0  0  0  0  0  0  0  0  0  0  0  0
  1  2  2  0
  2  3  1  0
  3  4  1  0
  4  5  1  0
  5  6  1  0
  6  7  1  0
  7  8  1  0
  8  9  1  0
  2 10  1  0
 10 11  2  0
 11 12  1  0
 12 13  1  0
 12 14  2  0
 14 15  1  0
 15 16  1  0
 16 17  1  0
 17 18  2  0
 18 19  1  0
  9  5  1  0
 19 10  1  0
 19 15  2  0
  3 20  1  0
  4 21  1  0
  4 22  1  0
  5 23  1  0
  6 24  1  0
  6 25  1  0
  7 26  1  0
  7 27  1  0
  8 28  1  0
  8 29  1  0
  9 30  1  0
 11 31  1  0
 14 32  1  0
 16 33  1  0
 17 34  1  0
M  END
>  <Energy>  (1179) 
1282.6938036422891

>  <compound_id>  (1179) 
9197

>  <target_id>  (1179) 
1

>  <reference_id>  (1179) 
103

>  <inspiration_ids>  (1179) 
[103, 95]

>  <energy_score>  (1179) 
1231.9893336012117

>  <distance_score>  (1179) 
7.316739294674802

>  <path>  (1179) 
/opt/xchem-fragalysis-2/maxwin/BulkDock/SCRATCH/511014/C9197-P103/C9197-P103.minimised.mol

>  <scratch_subdir>  (1179) 
/opt/xchem-fragalysis-2/maxwin/BulkDock/SCRATCH/511014/C9197-P103

>  <fragmenstein_runtime>  (1179) 
10.659431457519531

>  <fragmenstein_outcome>  (1179) 
too moved

>  <fragmenstein_mode>  (1179) 
expansion

>  <fragmenstein_error>  (1179) 


$$$$
C9197-P95
     RDKit          3D

 34 36  0  0  0  0  0  0  0  0999 V2000
    2.8586   -3.5636   13.1222 O   0  0  0  0  0  0  0  0  0  0  0  0
    3.4282   -2.9002   12.2535 C   0  0  0  0  0  0  0  0  0  0  0  0
    2.5161   -1.9746   10.8379 N   0  0  0  0  0  0  0  0  0  0  0  0
    0.4692   -1.6352   10.4010 C   0  0  0  0  0  0  0  0  0  0  0  0
   -1.4222   -1.2742    9.1972 C   0  0  0  0  0  0  0  0  0  0  0  0
   -2.6885   -2.2705    8.2902 C   0  0  0  0  0  0  0  0  0  0  0  0
   -3.8506   -1.4875    7.6957 C   0  0  0  0  0  0  0  0  0  0  0  0
   -4.0871   -0.4286    8.6660 C   0  0  0  0  0  0  0  0  0  0  0  0
   -2.7674    0.0199    9.1301 N   0  0  0  0  0  0  0  0  0  0  0  0
    5.4899   -2.6356   12.5197 C   0  0  0  0  0  0  0  0  0  0  0  0
    6.4160   -2.8225   14.0127 C   0  0  0  0  0  0  0  0  0  0  0  0
    7.9771   -2.8152   14.8332 C   0  0  0  0  0  0  0  0  0  0  0  0
   10.2209   -3.4748   14.8296 Br  0  0  0  0  0  0  0  0  0  0  0  0
    8.6658   -1.8888   14.1970 C   0  0  0  0  0  0  0  0  0  0  0  0
    7.8974   -1.0099   13.4664 C   0  0  0  0  0  0  0  0  0  0  0  0
    8.4041    0.2536   14.0375 N   0  0  0  0  0  0  0  0  0  0  0  0
    7.8213    0.0593   15.3114 C   0  0  0  0  0  0  0  0  0  0  0  0
    6.7437   -0.7406   14.9510 N   0  0  0  0  0  0  0  0  0  0  0  0
    6.4912   -1.3131   13.2779 C   0  0  0  0  0  0  0  0  0  0  0  0
    3.1152   -1.6371   10.2829 H   0  0  0  0  0  0  0  0  0  0  0  0
    0.9670   -1.0602    9.6315 H   0  0  0  0  0  0  0  0  0  0  0  0
    0.1609   -1.2124   11.3664 H   0  0  0  0  0  0  0  0  0  0  0  0
   -1.5104   -1.0124    8.1404 H   0  0  0  0  0  0  0  0  0  0  0  0
   -2.3594   -2.5909    7.2999 H   0  0  0  0  0  0  0  0  0  0  0  0
   -3.0509   -3.1361    8.7930 H   0  0  0  0  0  0  0  0  0  0  0  0
   -4.7299   -2.1163    7.5250 H   0  0  0  0  0  0  0  0  0  0  0  0
   -3.5715   -1.0768    6.7182 H   0  0  0  0  0  0  0  0  0  0  0  0
   -4.6715   -0.7856    9.4948 H   0  0  0  0  0  0  0  0  0  0  0  0
   -4.7049    0.3810    8.2707 H   0  0  0  0  0  0  0  0  0  0  0  0
   -2.9449    0.0578   10.1498 H   0  0  0  0  0  0  0  0  0  0  0  0
    5.6330   -2.9090   14.8087 H   0  0  0  0  0  0  0  0  0  0  0  0
    9.6065   -1.4441   14.5570 H   0  0  0  0  0  0  0  0  0  0  0  0
    9.3625    0.5493   13.9236 H   0  0  0  0  0  0  0  0  0  0  0  0
    8.1111    0.4919   16.2580 H   0  0  0  0  0  0  0  0  0  0  0  0
  1  2  2  0
  2  3  1  0
  3  4  1  0
  4  5  1  0
  5  6  1  0
  6  7  1  0
  7  8  1  0
  8  9  1  0
  2 10  1  0
 10 11  2  0
 11 12  1  0
 12 13  1  0
 12 14  2  0
 14 15  1  0
 15 16  1  0
 16 17  1  0
 17 18  2  0
 18 19  1  0
  9  5  1  0
 19 10  1  0
 19 15  2  0
  3 20  1  0
  4 21  1  0
  4 22  1  0
  5 23  1  0
  6 24  1  0
  6 25  1  0
  7 26  1  0
  7 27  1  0
  8 28  1  0
  8 29  1  0
  9 30  1  0
 11 31  1  0
 14 32  1  0
 16 33  1  0
 17 34  1  0
M  END
>  <Energy>  (1180) 
1363.0807428257488

>  <compound_id>  (1180) 
9197

>  <target_id>  (1180) 
1

>  <reference_id>  (1180) 
95

>  <inspiration_ids>  (1180) 
[103, 95]

>  <energy_score>  (1180) 
1312.376272784667

>  <distance_score>  (1180) 
5.964195929118963

>  <path>  (1180) 
/opt/xchem-fragalysis-2/maxwin/BulkDock/SCRATCH/511014/C9197-P95/C9197-P95.minimised.mol

>  <scratch_subdir>  (1180) 
/opt/xchem-fragalysis-2/maxwin/BulkDock/SCRATCH/511014/C9197-P95

>  <fragmenstein_runtime>  (1180) 
10.009944200515747

>  <fragmenstein_outcome>  (1180) 
too moved

>  <fragmenstein_mode>  (1180) 
expansion

>  <fragmenstein_error>  (1180) 


$$$$
C9199-P103
     RDKit          3D

 43 46  0  0  0  0  0  0  0  0999 V2000
   -3.7225   -2.9623    7.5030 O   0  0  0  0  0  0  0  0  0  0  0  0
   -3.5372   -1.7682    7.6830 C   0  0  0  0  0  0  0  0  0  0  0  0
   -4.8827   -1.0581    7.9233 C   0  0  0  0  0  0  0  0  0  0  0  0
   -5.0325    0.1012    8.7666 C   0  0  0  0  0  0  0  0  0  0  0  0
   -6.5206    0.4675    8.5871 C   0  0  0  0  0  0  0  0  0  0  0  0
   -6.9386   -0.1562    7.2741 C   0  0  0  0  0  0  0  0  0  0  0  0
   -5.6632   -0.6053    6.7370 N   0  0  0  0  0  0  0  0  0  0  0  0
   -2.2378   -0.9317    7.5893 N   0  0  0  0  0  0  0  0  0  0  0  0
   -1.5124   -0.8788    9.0628 C   0  0  0  0  0  0  0  0  0  0  0  0
    0.3005   -1.0478   10.1523 C   0  0  0  0  0  0  0  0  0  0  0  0
    1.5060   -1.9592    9.8511 N   0  0  0  0  0  0  0  0  0  0  0  0
    2.8891   -2.8419   10.7909 C   0  0  0  0  0  0  0  0  0  0  0  0
    2.9400   -4.2044   10.8826 C   0  0  0  0  0  0  0  0  0  0  0  0
    2.9266   -4.9158   12.1356 C   0  0  0  0  0  0  0  0  0  0  0  0
    2.8436   -4.3229   13.4134 C   0  0  0  0  0  0  0  0  0  0  0  0
    3.7314   -3.2826   13.2913 C   0  0  0  0  0  0  0  0  0  0  0  0
    5.0901   -2.8184   14.3508 N   0  0  0  0  0  0  0  0  0  0  0  0
    6.1608   -2.4464   13.6412 C   0  0  0  0  0  0  0  0  0  0  0  0
    5.6732   -2.5099   12.4224 N   0  0  0  0  0  0  0  0  0  0  0  0
    4.0030   -2.8083   12.0429 C   0  0  0  0  0  0  0  0  0  0  0  0
    1.2703   -2.0639    8.0186 C   0  0  0  0  0  0  0  0  0  0  0  0
   -0.5404   -1.4159    7.0254 C   0  0  0  0  0  0  0  0  0  0  0  0
   -5.5297   -1.8349    8.3042 H   0  0  0  0  0  0  0  0  0  0  0  0
   -4.7157   -0.1987    9.7524 H   0  0  0  0  0  0  0  0  0  0  0  0
   -4.3724    0.8926    8.4328 H   0  0  0  0  0  0  0  0  0  0  0  0
   -6.6622    1.5501    8.5336 H   0  0  0  0  0  0  0  0  0  0  0  0
   -7.1254    0.0739    9.4106 H   0  0  0  0  0  0  0  0  0  0  0  0
   -7.6156   -1.0031    7.4315 H   0  0  0  0  0  0  0  0  0  0  0  0
   -7.4314    0.5569    6.6066 H   0  0  0  0  0  0  0  0  0  0  0  0
   -5.1772    0.1907    6.3252 H   0  0  0  0  0  0  0  0  0  0  0  0
   -2.1630   -1.7118    9.2310 H   0  0  0  0  0  0  0  0  0  0  0  0
   -2.0950   -0.0076    9.3810 H   0  0  0  0  0  0  0  0  0  0  0  0
    0.1787   -0.8602   11.2040 H   0  0  0  0  0  0  0  0  0  0  0  0
    0.9682   -0.2615    9.8361 H   0  0  0  0  0  0  0  0  0  0  0  0
    3.7732   -4.6232   10.3519 H   0  0  0  0  0  0  0  0  0  0  0  0
    3.2064   -5.9660   12.0556 H   0  0  0  0  0  0  0  0  0  0  0  0
    2.7777   -4.8798   14.3379 H   0  0  0  0  0  0  0  0  0  0  0  0
    5.1234   -3.2382   15.2623 H   0  0  0  0  0  0  0  0  0  0  0  0
    7.1672   -2.2393   13.9784 H   0  0  0  0  0  0  0  0  0  0  0  0
    2.1234   -1.6875    7.4826 H   0  0  0  0  0  0  0  0  0  0  0  0
    1.4471   -3.1509    8.0798 H   0  0  0  0  0  0  0  0  0  0  0  0
   -0.1049   -1.0642    6.1242 H   0  0  0  0  0  0  0  0  0  0  0  0
   -1.1813   -2.1313    6.7007 H   0  0  0  0  0  0  0  0  0  0  0  0
  1  2  2  0
  2  3  1  0
  3  4  1  0
  4  5  1  0
  5  6  1  0
  6  7  1  0
  2  8  1  0
  8  9  1  0
  9 10  1  0
 10 11  1  0
 11 12  1  0
 12 13  2  0
 13 14  1  0
 14 15  2  0
 15 16  1  0
 16 17  1  0
 17 18  1  0
 18 19  2  0
 19 20  1  0
 11 21  1  0
 21 22  1  0
  7  3  1  0
 22  8  1  0
 20 12  1  0
 20 16  2  0
  3 23  1  0
  4 24  1  0
  4 25  1  0
  5 26  1  0
  5 27  1  0
  6 28  1  0
  6 29  1  0
  7 30  1  0
  9 31  1  0
  9 32  1  0
 10 33  1  0
 10 34  1  0
 13 35  1  0
 14 36  1  0
 15 37  1  0
 17 38  1  0
 18 39  1  0
 21 40  1  0
 21 41  1  0
 22 42  1  0
 22 43  1  0
M  END
>  <Energy>  (1181) 
967.76006574310873

>  <compound_id>  (1181) 
9199

>  <target_id>  (1181) 
1

>  <reference_id>  (1181) 
103

>  <inspiration_ids>  (1181) 
[103, 95]

>  <energy_score>  (1181) 
800.5637147392215

>  <distance_score>  (1181) 
8.075238752424141

>  <path>  (1181) 
/opt/xchem-fragalysis-2/maxwin/BulkDock/SCRATCH/511014/C9199-P103/C9199-P103.minimised.mol

>  <scratch_subdir>  (1181) 
/opt/xchem-fragalysis-2/maxwin/BulkDock/SCRATCH/511014/C9199-P103

>  <fragmenstein_runtime>  (1181) 
12.953761100769043

>  <fragmenstein_outcome>  (1181) 
too moved

>  <fragmenstein_mode>  (1181) 
expansion

>  <fragmenstein_error>  (1181) 


$$$$
C9199-P95
     RDKit          3D

 43 46  0  0  0  0  0  0  0  0999 V2000
   -1.3840   -1.4151    7.2835 O   0  0  0  0  0  0  0  0  0  0  0  0
   -1.4886   -1.3839    8.5646 C   0  0  0  0  0  0  0  0  0  0  0  0
   -2.9185   -1.7918    8.9313 C   0  0  0  0  0  0  0  0  0  0  0  0
   -4.1877   -0.7229    8.9537 C   0  0  0  0  0  0  0  0  0  0  0  0
   -5.2149   -1.1760    7.9091 C   0  0  0  0  0  0  0  0  0  0  0  0
   -4.4966   -2.1930    7.0398 C   0  0  0  0  0  0  0  0  0  0  0  0
   -3.4704   -2.8369    7.8836 N   0  0  0  0  0  0  0  0  0  0  0  0
    0.0058   -0.6778    9.7118 N   0  0  0  0  0  0  0  0  0  0  0  0
    1.3324   -1.4542   10.4339 C   0  0  0  0  0  0  0  0  0  0  0  0
    2.4602   -0.2618   11.4715 C   0  0  0  0  0  0  0  0  0  0  0  0
    4.2742   -0.1336   11.0018 N   0  0  0  0  0  0  0  0  0  0  0  0
    5.8598   -0.5594   12.0185 C   0  0  0  0  0  0  0  0  0  0  0  0
    6.0541   -1.8236   12.4729 C   0  0  0  0  0  0  0  0  0  0  0  0
    6.4344   -2.1397   13.8896 C   0  0  0  0  0  0  0  0  0  0  0  0
    7.5079   -1.7107   14.5771 C   0  0  0  0  0  0  0  0  0  0  0  0
    8.0549   -0.7437   13.8548 C   0  0  0  0  0  0  0  0  0  0  0  0
    9.1586    0.0059   14.2521 N   0  0  0  0  0  0  0  0  0  0  0  0
    9.4762    0.8361   13.2514 C   0  0  0  0  0  0  0  0  0  0  0  0
    8.5564    0.7263   12.3074 N   0  0  0  0  0  0  0  0  0  0  0  0
    7.4652   -0.2653   12.5562 C   0  0  0  0  0  0  0  0  0  0  0  0
    3.3278    1.1465   10.0722 C   0  0  0  0  0  0  0  0  0  0  0  0
    1.6943    0.1966    9.2085 C   0  0  0  0  0  0  0  0  0  0  0  0
   -2.9240   -1.0605    8.1066 H   0  0  0  0  0  0  0  0  0  0  0  0
   -3.8443    0.2964    8.6891 H   0  0  0  0  0  0  0  0  0  0  0  0
   -4.6289   -0.5432    9.9180 H   0  0  0  0  0  0  0  0  0  0  0  0
   -5.5695   -0.3278    7.3138 H   0  0  0  0  0  0  0  0  0  0  0  0
   -6.0950   -1.6066    8.3886 H   0  0  0  0  0  0  0  0  0  0  0  0
   -4.0156   -1.6884    6.1935 H   0  0  0  0  0  0  0  0  0  0  0  0
   -5.1862   -2.9377    6.6322 H   0  0  0  0  0  0  0  0  0  0  0  0
   -2.6822   -3.0929    7.2882 H   0  0  0  0  0  0  0  0  0  0  0  0
    0.7712   -1.6916   11.2825 H   0  0  0  0  0  0  0  0  0  0  0  0
    2.2813   -1.8385   10.0981 H   0  0  0  0  0  0  0  0  0  0  0  0
    1.8943   -0.3036   12.4571 H   0  0  0  0  0  0  0  0  0  0  0  0
    2.3005    0.8006   11.7058 H   0  0  0  0  0  0  0  0  0  0  0  0
    5.3724   -2.5900   12.0304 H   0  0  0  0  0  0  0  0  0  0  0  0
    5.8145   -2.8213   14.4453 H   0  0  0  0  0  0  0  0  0  0  0  0
    7.8816   -2.0500   15.5108 H   0  0  0  0  0  0  0  0  0  0  0  0
    9.7229   -0.1831   15.0641 H   0  0  0  0  0  0  0  0  0  0  0  0
   10.3505    1.4703   13.2285 H   0  0  0  0  0  0  0  0  0  0  0  0
    3.0766    1.9964   10.7225 H   0  0  0  0  0  0  0  0  0  0  0  0
    4.0202    1.5652    9.3225 H   0  0  0  0  0  0  0  0  0  0  0  0
    1.7343   -0.0087    8.1212 H   0  0  0  0  0  0  0  0  0  0  0  0
    1.4615    1.2535    8.9641 H   0  0  0  0  0  0  0  0  0  0  0  0
  1  2  2  0
  2  3  1  0
  3  4  1  0
  4  5  1  0
  5  6  1  0
  6  7  1  0
  2  8  1  0
  8  9  1  0
  9 10  1  0
 10 11  1  0
 11 12  1  0
 12 13  2  0
 13 14  1  0
 14 15  2  0
 15 16  1  0
 16 17  1  0
 17 18  1  0
 18 19  2  0
 19 20  1  0
 11 21  1  0
 21 22  1  0
  7  3  1  0
 22  8  1  0
 20 12  1  0
 20 16  2  0
  3 23  1  0
  4 24  1  0
  4 25  1  0
  5 26  1  0
  5 27  1  0
  6 28  1  0
  6 29  1  0
  7 30  1  0
  9 31  1  0
  9 32  1  0
 10 33  1  0
 10 34  1  0
 13 35  1  0
 14 36  1  0
 15 37  1  0
 17 38  1  0
 18 39  1  0
 21 40  1  0
 21 41  1  0
 22 42  1  0
 22 43  1  0
M  END
>  <Energy>  (1182) 
1174.9707635827885

>  <compound_id>  (1182) 
9199

>  <target_id>  (1182) 
1

>  <reference_id>  (1182) 
95

>  <inspiration_ids>  (1182) 
[103, 95]

>  <energy_score>  (1182) 
1007.774412578894

>  <distance_score>  (1182) 
6.861447594768918

>  <path>  (1182) 
/opt/xchem-fragalysis-2/maxwin/BulkDock/SCRATCH/511014/C9199-P95/C9199-P95.minimised.mol

>  <scratch_subdir>  (1182) 
/opt/xchem-fragalysis-2/maxwin/BulkDock/SCRATCH/511014/C9199-P95

>  <fragmenstein_runtime>  (1182) 
10.812020063400269

>  <fragmenstein_outcome>  (1182) 
too moved

>  <fragmenstein_mode>  (1182) 
expansion

>  <fragmenstein_error>  (1182) 


$$$$
C9200-P103
     RDKit          3D

 48 51  0  0  0  0  0  0  0  0999 V2000
   12.2163    0.9572   13.7646 C   0  0  0  0  0  0  0  0  0  0  0  0
   12.2760    1.1409   15.1453 C   0  0  0  0  0  0  0  0  0  0  0  0
   11.5050    2.1252   15.7746 C   0  0  0  0  0  0  0  0  0  0  0  0
   10.6548    2.8840   14.9665 C   0  0  0  0  0  0  0  0  0  0  0  0
    9.7381    3.8666   15.2455 N   0  0  0  0  0  0  0  0  0  0  0  0
    9.1000    4.2529   14.0778 C   0  0  0  0  0  0  0  0  0  0  0  0
    8.0244    5.1278   14.1237 N   0  0  0  0  0  0  0  0  0  0  0  0
    8.2037    6.2810   15.0340 C   0  0  0  0  0  0  0  0  0  0  0  0
    7.2426    7.4268   14.7528 C   0  0  0  0  0  0  0  0  0  0  0  0
    7.3093    7.8966   13.3011 C   0  0  0  0  0  0  0  0  0  0  0  0
    7.6083    6.7655   12.3148 C   0  0  0  0  0  0  0  0  0  0  0  0
    7.2250    5.3844   12.8627 C   0  0  0  0  0  0  0  0  0  0  0  0
    5.6477    5.2278   13.0026 C   0  0  0  0  0  0  0  0  0  0  0  0
    4.9540    4.8141   11.6578 C   0  0  0  0  0  0  0  0  0  0  0  0
    3.4993    4.2380   11.7156 C   0  0  0  0  0  0  0  0  0  0  0  0
    2.4294    5.2267   12.1917 C   0  0  0  0  0  0  0  0  0  0  0  0
    1.2617    5.0807   11.2244 C   0  0  0  0  0  0  0  0  0  0  0  0
    1.9458    4.6693    9.9404 C   0  0  0  0  0  0  0  0  0  0  0  0
    3.0144    3.7844   10.3933 N   0  0  0  0  0  0  0  0  0  0  0  0
    9.6255    3.5900   13.0583 N   0  0  0  0  0  0  0  0  0  0  0  0
   10.5802    2.7351   13.5929 C   0  0  0  0  0  0  0  0  0  0  0  0
   11.3835    1.7618   12.9723 C   0  0  0  0  0  0  0  0  0  0  0  0
   12.8300    0.1925   13.2937 H   0  0  0  0  0  0  0  0  0  0  0  0
   12.9452    0.5229   15.7403 H   0  0  0  0  0  0  0  0  0  0  0  0
   11.5713    2.2948   16.8425 H   0  0  0  0  0  0  0  0  0  0  0  0
    9.4888    4.1816   16.1685 H   0  0  0  0  0  0  0  0  0  0  0  0
    9.2288    6.6673   14.9504 H   0  0  0  0  0  0  0  0  0  0  0  0
    8.0582    5.9506   16.0696 H   0  0  0  0  0  0  0  0  0  0  0  0
    7.4626    8.2700   15.4182 H   0  0  0  0  0  0  0  0  0  0  0  0
    6.2220    7.1141   15.0003 H   0  0  0  0  0  0  0  0  0  0  0  0
    8.0816    8.6683   13.1955 H   0  0  0  0  0  0  0  0  0  0  0  0
    6.3603    8.3806   13.0405 H   0  0  0  0  0  0  0  0  0  0  0  0
    7.1031    6.9670   11.3646 H   0  0  0  0  0  0  0  0  0  0  0  0
    8.6844    6.7706   12.0956 H   0  0  0  0  0  0  0  0  0  0  0  0
    7.5270    4.6359   12.1324 H   0  0  0  0  0  0  0  0  0  0  0  0
    5.1901    6.1672   13.3278 H   0  0  0  0  0  0  0  0  0  0  0  0
    5.4015    4.5064   13.7832 H   0  0  0  0  0  0  0  0  0  0  0  0
    4.9540    5.6903   10.9988 H   0  0  0  0  0  0  0  0  0  0  0  0
    5.5802    4.0565   11.1729 H   0  0  0  0  0  0  0  0  0  0  0  0
    3.5079    3.3635   12.3764 H   0  0  0  0  0  0  0  0  0  0  0  0
    2.1187    5.0281   13.2226 H   0  0  0  0  0  0  0  0  0  0  0  0
    2.8065    6.2556   12.1484 H   0  0  0  0  0  0  0  0  0  0  0  0
    0.5725    4.3158   11.5899 H   0  0  0  0  0  0  0  0  0  0  0  0
    0.7008    6.0139   11.1167 H   0  0  0  0  0  0  0  0  0  0  0  0
    2.3760    5.5438    9.4385 H   0  0  0  0  0  0  0  0  0  0  0  0
    1.2666    4.1722    9.2452 H   0  0  0  0  0  0  0  0  0  0  0  0
    3.7610    3.6768    9.7099 H   0  0  0  0  0  0  0  0  0  0  0  0
   11.3484    1.6271   11.8973 H   0  0  0  0  0  0  0  0  0  0  0  0
  1  2  2  0
  2  3  1  0
  3  4  2  0
  4  5  1  0
  5  6  1  0
  6  7  1  0
  7  8  1  0
  8  9  1  0
  9 10  1  0
 10 11  1  0
 11 12  1  0
 12 13  1  0
 13 14  1  0
 14 15  1  0
 15 16  1  0
 16 17  1  0
 17 18  1  0
 18 19  1  0
  6 20  2  0
 20 21  1  0
 21 22  2  0
 22  1  1  0
 21  4  1  0
 12  7  1  0
 19 15  1  0
  1 23  1  0
  2 24  1  0
  3 25  1  0
  5 26  1  0
  8 27  1  0
  8 28  1  0
  9 29  1  0
  9 30  1  0
 10 31  1  0
 10 32  1  0
 11 33  1  0
 11 34  1  0
 12 35  1  0
 13 36  1  0
 13 37  1  0
 14 38  1  0
 14 39  1  0
 15 40  1  0
 16 41  1  0
 16 42  1  0
 17 43  1  0
 17 44  1  0
 18 45  1  0
 18 46  1  0
 19 47  1  0
 22 48  1  0
M  END
>  <Energy>  (1183) 
7.4199916544033586

>  <compound_id>  (1183) 
9200

>  <target_id>  (1183) 
1

>  <reference_id>  (1183) 
103

>  <inspiration_ids>  (1183) 
[103, 95]

>  <energy_score>  (1183) 
-35.73335845857221

>  <distance_score>  (1183) 
9.482833150703465

>  <path>  (1183) 
/opt/xchem-fragalysis-2/maxwin/BulkDock/SCRATCH/511014/C9200-P103/C9200-P103.minimised.mol

>  <scratch_subdir>  (1183) 
/opt/xchem-fragalysis-2/maxwin/BulkDock/SCRATCH/511014/C9200-P103

>  <fragmenstein_runtime>  (1183) 
14.065020561218262

>  <fragmenstein_outcome>  (1183) 
too moved

>  <fragmenstein_mode>  (1183) 
expansion

>  <fragmenstein_error>  (1183) 


$$$$
C9200-P95
     RDKit          3D

 48 51  0  0  0  0  0  0  0  0999 V2000
   12.1321   -2.7064   15.3476 C   0  0  0  0  0  0  0  0  0  0  0  0
   12.6801   -1.4376   15.2455 C   0  0  0  0  0  0  0  0  0  0  0  0
   11.8854   -0.3611   14.8542 C   0  0  0  0  0  0  0  0  0  0  0  0
   10.5252   -0.6205   14.6542 C   0  0  0  0  0  0  0  0  0  0  0  0
    9.5675    0.0805   14.0099 N   0  0  0  0  0  0  0  0  0  0  0  0
    8.3211   -0.6091   13.9115 C   0  0  0  0  0  0  0  0  0  0  0  0
    7.3877    0.2381   13.1822 N   0  0  0  0  0  0  0  0  0  0  0  0
    7.6828    1.5026   14.8052 C   0  0  0  0  0  0  0  0  0  0  0  0
    6.5475    3.1763   14.9489 C   0  0  0  0  0  0  0  0  0  0  0  0
    5.0549    3.8417   13.7676 C   0  0  0  0  0  0  0  0  0  0  0  0
    4.6378    2.2746   12.4738 C   0  0  0  0  0  0  0  0  0  0  0  0
    5.3769    0.2786   12.5065 C   0  0  0  0  0  0  0  0  0  0  0  0
    3.6375    0.2158   11.1134 C   0  0  0  0  0  0  0  0  0  0  0  0
    1.9020   -1.0523   10.7079 C   0  0  0  0  0  0  0  0  0  0  0  0
   -0.0909   -1.0830    9.7842 C   0  0  0  0  0  0  0  0  0  0  0  0
   -1.9985   -0.5055    8.9476 C   0  0  0  0  0  0  0  0  0  0  0  0
   -3.3999   -1.1109    8.5127 C   0  0  0  0  0  0  0  0  0  0  0  0
   -2.7953   -2.3322    8.2148 C   0  0  0  0  0  0  0  0  0  0  0  0
   -1.4369   -1.7868    8.4730 N   0  0  0  0  0  0  0  0  0  0  0  0
    8.4692   -1.7439   14.5763 N   0  0  0  0  0  0  0  0  0  0  0  0
    9.8879   -1.8298   14.8352 C   0  0  0  0  0  0  0  0  0  0  0  0
   10.7645   -2.8983   15.1046 C   0  0  0  0  0  0  0  0  0  0  0  0
   12.7600   -3.5650   15.5782 H   0  0  0  0  0  0  0  0  0  0  0  0
   13.7460   -1.2954   15.4078 H   0  0  0  0  0  0  0  0  0  0  0  0
   12.3203    0.6123   14.6564 H   0  0  0  0  0  0  0  0  0  0  0  0
    9.7492    0.8629   13.4119 H   0  0  0  0  0  0  0  0  0  0  0  0
    8.7128    1.9030   14.8087 H   0  0  0  0  0  0  0  0  0  0  0  0
    7.5154    0.8837   15.7039 H   0  0  0  0  0  0  0  0  0  0  0  0
    7.2916    3.9871   14.8841 H   0  0  0  0  0  0  0  0  0  0  0  0
    6.1555    3.2127   15.9698 H   0  0  0  0  0  0  0  0  0  0  0  0
    4.2056    4.2623   14.3399 H   0  0  0  0  0  0  0  0  0  0  0  0
    5.4440    4.6833   13.1527 H   0  0  0  0  0  0  0  0  0  0  0  0
    3.5365    2.2311   12.5642 H   0  0  0  0  0  0  0  0  0  0  0  0
    4.7089    2.7763   11.4839 H   0  0  0  0  0  0  0  0  0  0  0  0
    5.7903   -0.5306   11.8564 H   0  0  0  0  0  0  0  0  0  0  0  0
    2.9227    0.9191   11.5977 H   0  0  0  0  0  0  0  0  0  0  0  0
    3.8946    0.9108   10.2816 H   0  0  0  0  0  0  0  0  0  0  0  0
    1.4673   -1.0981   11.7283 H   0  0  0  0  0  0  0  0  0  0  0  0
    2.4579   -1.9643   10.6043 H   0  0  0  0  0  0  0  0  0  0  0  0
    0.5269   -1.7934    9.2154 H   0  0  0  0  0  0  0  0  0  0  0  0
   -2.6088    0.1834    9.5513 H   0  0  0  0  0  0  0  0  0  0  0  0
   -2.0163    0.2178    8.1023 H   0  0  0  0  0  0  0  0  0  0  0  0
   -4.2163   -1.0998    9.2298 H   0  0  0  0  0  0  0  0  0  0  0  0
   -3.8005   -0.6244    7.6178 H   0  0  0  0  0  0  0  0  0  0  0  0
   -3.0837   -3.2271    8.7164 H   0  0  0  0  0  0  0  0  0  0  0  0
   -2.9624   -2.5584    7.1578 H   0  0  0  0  0  0  0  0  0  0  0  0
   -1.1991   -1.2923    7.5630 H   0  0  0  0  0  0  0  0  0  0  0  0
   10.3899   -3.9000   15.0673 H   0  0  0  0  0  0  0  0  0  0  0  0
  1  2  2  0
  2  3  1  0
  3  4  2  0
  4  5  1  0
  5  6  1  0
  6  7  1  0
  7  8  1  0
  8  9  1  0
  9 10  1  0
 10 11  1  0
 11 12  1  0
 12 13  1  0
 13 14  1  0
 14 15  1  0
 15 16  1  0
 16 17  1  0
 17 18  1  0
 18 19  1  0
  6 20  2  0
 20 21  1  0
 21 22  2  0
 22  1  1  0
 21  4  1  0
 12  7  1  0
 19 15  1  0
  1 23  1  0
  2 24  1  0
  3 25  1  0
  5 26  1  0
  8 27  1  0
  8 28  1  0
  9 29  1  0
  9 30  1  0
 10 31  1  0
 10 32  1  0
 11 33  1  0
 11 34  1  0
 12 35  1  0
 13 36  1  0
 13 37  1  0
 14 38  1  0
 14 39  1  0
 15 40  1  0
 16 41  1  0
 16 42  1  0
 17 43  1  0
 17 44  1  0
 18 45  1  0
 18 46  1  0
 19 47  1  0
 22 48  1  0
M  END
>  <Energy>  (1184) 
1584.871697471775

>  <compound_id>  (1184) 
9200

>  <target_id>  (1184) 
1

>  <reference_id>  (1184) 
95

>  <inspiration_ids>  (1184) 
[103, 95]

>  <energy_score>  (1184) 
1541.718347358807

>  <distance_score>  (1184) 
5.582840302427603

>  <path>  (1184) 
/opt/xchem-fragalysis-2/maxwin/BulkDock/SCRATCH/511014/C9200-P95/C9200-P95.minimised.mol

>  <scratch_subdir>  (1184) 
/opt/xchem-fragalysis-2/maxwin/BulkDock/SCRATCH/511014/C9200-P95

>  <fragmenstein_runtime>  (1184) 
8.888965606689453

>  <fragmenstein_outcome>  (1184) 
too moved

>  <fragmenstein_mode>  (1184) 
expansion

>  <fragmenstein_error>  (1184) 


$$$$
C9201-P103
     RDKit          3D

 40 42  0  0  0  0  0  0  0  0999 V2000
   -4.1832   -1.8760    7.5485 O   0  0  0  0  0  0  0  0  0  0  0  0
   -4.1352   -0.8661    8.1933 C   0  0  0  0  0  0  0  0  0  0  0  0
   -3.0522   -0.3136    9.0377 N   0  0  0  0  0  0  0  0  0  0  0  0
   -1.5192   -0.8326    9.2907 C   0  0  0  0  0  0  0  0  0  0  0  0
    0.4102   -1.1201   10.2384 C   0  0  0  0  0  0  0  0  0  0  0  0
    2.0431   -1.1132   11.4487 C   0  0  0  0  0  0  0  0  0  0  0  0
    3.7617   -2.0737   11.5785 N   0  0  0  0  0  0  0  0  0  0  0  0
    4.7634   -0.6206   11.2905 C   0  0  0  0  0  0  0  0  0  0  0  0
    6.0902   -0.7998   11.3430 N   0  0  0  0  0  0  0  0  0  0  0  0
    6.3055   -1.5996   12.3435 C   0  0  0  0  0  0  0  0  0  0  0  0
    7.4184   -1.3517   13.1581 C   0  0  0  0  0  0  0  0  0  0  0  0
    7.7507   -1.4864   14.4562 C   0  0  0  0  0  0  0  0  0  0  0  0
    6.9085   -2.3930   14.8852 C   0  0  0  0  0  0  0  0  0  0  0  0
    5.6737   -2.7209   14.2105 C   0  0  0  0  0  0  0  0  0  0  0  0
    5.1541   -2.7292   12.5957 C   0  0  0  0  0  0  0  0  0  0  0  0
   -5.3971    0.1251    8.0544 C   0  0  0  0  0  0  0  0  0  0  0  0
   -6.7384   -0.3812    8.5422 C   0  0  0  0  0  0  0  0  0  0  0  0
   -7.3180   -1.1394    7.3704 C   0  0  0  0  0  0  0  0  0  0  0  0
   -6.8712   -0.3098    6.1912 C   0  0  0  0  0  0  0  0  0  0  0  0
   -5.7384    0.4903    6.6544 N   0  0  0  0  0  0  0  0  0  0  0  0
   -3.3819    0.5061    9.4962 H   0  0  0  0  0  0  0  0  0  0  0  0
   -1.6223   -1.5607    8.4578 H   0  0  0  0  0  0  0  0  0  0  0  0
   -1.5345    0.1361    8.8540 H   0  0  0  0  0  0  0  0  0  0  0  0
   -0.0091   -0.8206   11.1897 H   0  0  0  0  0  0  0  0  0  0  0  0
    1.1119   -0.4815    9.7073 H   0  0  0  0  0  0  0  0  0  0  0  0
    1.5980   -0.9187   12.4773 H   0  0  0  0  0  0  0  0  0  0  0  0
    2.6156   -0.1804   11.3923 H   0  0  0  0  0  0  0  0  0  0  0  0
    4.2337    0.2228   10.8448 H   0  0  0  0  0  0  0  0  0  0  0  0
    7.7555   -2.3451   12.8597 H   0  0  0  0  0  0  0  0  0  0  0  0
    8.7117   -1.2379   14.8693 H   0  0  0  0  0  0  0  0  0  0  0  0
    7.2873   -2.9632   15.6859 H   0  0  0  0  0  0  0  0  0  0  0  0
    5.0700   -3.2290   14.9447 H   0  0  0  0  0  0  0  0  0  0  0  0
   -5.1075    1.0879    8.4553 H   0  0  0  0  0  0  0  0  0  0  0  0
   -7.3956    0.4640    8.7863 H   0  0  0  0  0  0  0  0  0  0  0  0
   -6.6775   -1.0019    9.4178 H   0  0  0  0  0  0  0  0  0  0  0  0
   -8.4061   -1.2329    7.4343 H   0  0  0  0  0  0  0  0  0  0  0  0
   -6.8891   -2.1456    7.3112 H   0  0  0  0  0  0  0  0  0  0  0  0
   -6.6434   -0.9379    5.3312 H   0  0  0  0  0  0  0  0  0  0  0  0
   -7.6708    0.3735    5.8843 H   0  0  0  0  0  0  0  0  0  0  0  0
   -4.9046    0.4156    6.0745 H   0  0  0  0  0  0  0  0  0  0  0  0
  1  2  2  0
  2  3  1  0
  3  4  1  0
  4  5  1  0
  5  6  1  0
  6  7  1  0
  7  8  1  0
  8  9  2  0
  9 10  1  0
 10 11  2  0
 11 12  1  0
 12 13  2  0
 13 14  1  0
 14 15  2  0
  2 16  1  0
 16 17  1  0
 17 18  1  0
 18 19  1  0
 19 20  1  0
 15  7  1  0
 20 16  1  0
 15 10  1  0
  3 21  1  0
  4 22  1  0
  4 23  1  0
  5 24  1  0
  5 25  1  0
  6 26  1  0
  6 27  1  0
  8 28  1  0
 11 29  1  0
 12 30  1  0
 13 31  1  0
 14 32  1  0
 16 33  1  0
 17 34  1  0
 17 35  1  0
 18 36  1  0
 18 37  1  0
 19 38  1  0
 19 39  1  0
 20 40  1  0
M  END
>  <Energy>  (1185) 
840.67148666853984

>  <compound_id>  (1185) 
9201

>  <target_id>  (1185) 
1

>  <reference_id>  (1185) 
103

>  <inspiration_ids>  (1185) 
[103, 95]

>  <energy_score>  (1185) 
775.737306297736

>  <distance_score>  (1185) 
7.682939654955999

>  <path>  (1185) 
/opt/xchem-fragalysis-2/maxwin/BulkDock/SCRATCH/511014/C9201-P103/C9201-P103.minimised.mol

>  <scratch_subdir>  (1185) 
/opt/xchem-fragalysis-2/maxwin/BulkDock/SCRATCH/511014/C9201-P103

>  <fragmenstein_runtime>  (1185) 
8.741968154907227

>  <fragmenstein_outcome>  (1185) 
too moved

>  <fragmenstein_mode>  (1185) 
expansion

>  <fragmenstein_error>  (1185) 


$$$$
C9201-P95
     RDKit          3D

 40 42  0  0  0  0  0  0  0  0999 V2000
   -1.5226   -1.6957    8.1341 O   0  0  0  0  0  0  0  0  0  0  0  0
   -1.7574   -1.2726    9.2548 C   0  0  0  0  0  0  0  0  0  0  0  0
   -0.4465   -1.1720   10.7576 N   0  0  0  0  0  0  0  0  0  0  0  0
    1.5117   -1.5566   10.8229 C   0  0  0  0  0  0  0  0  0  0  0  0
    3.3799   -2.4158   11.2277 C   0  0  0  0  0  0  0  0  0  0  0  0
    5.2382   -2.5914   12.0656 C   0  0  0  0  0  0  0  0  0  0  0  0
    6.5519   -1.6625   13.0140 N   0  0  0  0  0  0  0  0  0  0  0  0
    7.1715   -0.7249   12.1917 C   0  0  0  0  0  0  0  0  0  0  0  0
    7.9457    0.1375   12.8034 N   0  0  0  0  0  0  0  0  0  0  0  0
    8.3121   -0.4134   13.9727 C   0  0  0  0  0  0  0  0  0  0  0  0
    9.3947    0.1071   14.7154 C   0  0  0  0  0  0  0  0  0  0  0  0
   10.2672   -0.8215   15.1975 C   0  0  0  0  0  0  0  0  0  0  0  0
    9.8484   -2.1176   15.1398 C   0  0  0  0  0  0  0  0  0  0  0  0
    8.4869   -2.4954   14.8131 C   0  0  0  0  0  0  0  0  0  0  0  0
    7.6381   -1.6730   14.0685 C   0  0  0  0  0  0  0  0  0  0  0  0
   -3.5274   -0.5808    9.2860 C   0  0  0  0  0  0  0  0  0  0  0  0
   -4.3865   -1.5718    8.3554 C   0  0  0  0  0  0  0  0  0  0  0  0
   -5.1363   -0.8862    7.2357 C   0  0  0  0  0  0  0  0  0  0  0  0
   -5.1550    0.4357    7.9068 C   0  0  0  0  0  0  0  0  0  0  0  0
   -3.6847    0.4571    8.3394 N   0  0  0  0  0  0  0  0  0  0  0  0
   -0.9149   -0.8593   11.6105 H   0  0  0  0  0  0  0  0  0  0  0  0
    1.6275   -1.1707    9.8255 H   0  0  0  0  0  0  0  0  0  0  0  0
    1.5576   -0.9435   11.7262 H   0  0  0  0  0  0  0  0  0  0  0  0
    3.5365   -2.9847   10.3167 H   0  0  0  0  0  0  0  0  0  0  0  0
    3.1242   -3.0819   12.1151 H   0  0  0  0  0  0  0  0  0  0  0  0
    5.8152   -2.9744   11.2769 H   0  0  0  0  0  0  0  0  0  0  0  0
    5.3521   -1.5128   11.9450 H   0  0  0  0  0  0  0  0  0  0  0  0
    6.9952   -0.7110   11.1328 H   0  0  0  0  0  0  0  0  0  0  0  0
    9.7309    1.1240   14.5416 H   0  0  0  0  0  0  0  0  0  0  0  0
   11.2768   -0.5593   15.4842 H   0  0  0  0  0  0  0  0  0  0  0  0
   10.5647   -2.9019   15.4015 H   0  0  0  0  0  0  0  0  0  0  0  0
    8.3466   -3.5181   15.0375 H   0  0  0  0  0  0  0  0  0  0  0  0
   -4.0774   -0.2216   10.1671 H   0  0  0  0  0  0  0  0  0  0  0  0
   -5.2562   -1.8164    8.9246 H   0  0  0  0  0  0  0  0  0  0  0  0
   -3.8271   -2.4230    7.9617 H   0  0  0  0  0  0  0  0  0  0  0  0
   -6.1330   -1.3018    7.0581 H   0  0  0  0  0  0  0  0  0  0  0  0
   -4.5776   -0.9045    6.2937 H   0  0  0  0  0  0  0  0  0  0  0  0
   -5.4526    1.2545    7.2449 H   0  0  0  0  0  0  0  0  0  0  0  0
   -5.8345    0.4488    8.7627 H   0  0  0  0  0  0  0  0  0  0  0  0
   -3.1282   -0.0339    7.5766 H   0  0  0  0  0  0  0  0  0  0  0  0
  1  2  2  0
  2  3  1  0
  3  4  1  0
  4  5  1  0
  5  6  1  0
  6  7  1  0
  7  8  1  0
  8  9  2  0
  9 10  1  0
 10 11  2  0
 11 12  1  0
 12 13  2  0
 13 14  1  0
 14 15  2  0
  2 16  1  0
 16 17  1  0
 17 18  1  0
 18 19  1  0
 19 20  1  0
 15  7  1  0
 20 16  1  0
 15 10  1  0
  3 21  1  0
  4 22  1  0
  4 23  1  0
  5 24  1  0
  5 25  1  0
  6 26  1  0
  6 27  1  0
  8 28  1  0
 11 29  1  0
 12 30  1  0
 13 31  1  0
 14 32  1  0
 16 33  1  0
 17 34  1  0
 17 35  1  0
 18 36  1  0
 18 37  1  0
 19 38  1  0
 19 39  1  0
 20 40  1  0
M  END
>  <Energy>  (1186) 
764.72095594328016

>  <compound_id>  (1186) 
9201

>  <target_id>  (1186) 
1

>  <reference_id>  (1186) 
95

>  <inspiration_ids>  (1186) 
[103, 95]

>  <energy_score>  (1186) 
699.7867755724874

>  <distance_score>  (1186) 
7.233468342124254

>  <path>  (1186) 
/opt/xchem-fragalysis-2/maxwin/BulkDock/SCRATCH/511014/C9201-P95/C9201-P95.minimised.mol

>  <scratch_subdir>  (1186) 
/opt/xchem-fragalysis-2/maxwin/BulkDock/SCRATCH/511014/C9201-P95

>  <fragmenstein_runtime>  (1186) 
6.508803129196167

>  <fragmenstein_outcome>  (1186) 
too moved

>  <fragmenstein_mode>  (1186) 
expansion

>  <fragmenstein_error>  (1186) 


$$$$
C9202-P103
     RDKit          3D

 47 50  0  0  0  0  0  0  0  0999 V2000
   -2.0575    0.1538    9.8339 O   0  0  0  0  0  0  0  0  0  0  0  0
   -1.4495   -0.8205    9.3964 C   0  0  0  0  0  0  0  0  0  0  0  0
    0.4693   -1.4718    9.8220 N   0  0  0  0  0  0  0  0  0  0  0  0
    1.9112   -0.8556   11.1071 C   0  0  0  0  0  0  0  0  0  0  0  0
    4.0715   -0.5646   11.3701 C   0  0  0  0  0  0  0  0  0  0  0  0
    6.0094   -0.9986   12.1205 C   0  0  0  0  0  0  0  0  0  0  0  0
    7.5975   -0.8744   13.0259 N   0  0  0  0  0  0  0  0  0  0  0  0
    8.6160    0.2003   13.1388 C   0  0  0  0  0  0  0  0  0  0  0  0
    9.9099    0.0386   13.2285 N   0  0  0  0  0  0  0  0  0  0  0  0
    9.7962   -0.8085   14.3400 C   0  0  0  0  0  0  0  0  0  0  0  0
   10.6962   -0.6868   15.3764 C   0  0  0  0  0  0  0  0  0  0  0  0
   10.0095    0.1540   16.2056 C   0  0  0  0  0  0  0  0  0  0  0  0
    8.6653   -0.0767   16.4631 C   0  0  0  0  0  0  0  0  0  0  0  0
    7.9010   -1.0435   15.7572 C   0  0  0  0  0  0  0  0  0  0  0  0
    8.3016   -1.3499   14.4633 C   0  0  0  0  0  0  0  0  0  0  0  0
   -2.6477   -1.7611    8.2277 C   0  0  0  0  0  0  0  0  0  0  0  0
   -4.4371   -2.1427    7.7117 C   0  0  0  0  0  0  0  0  0  0  0  0
   -5.5865   -1.0717    7.1411 C   0  0  0  0  0  0  0  0  0  0  0  0
   -6.7081   -1.9078    6.5520 C   0  0  0  0  0  0  0  0  0  0  0  0
   -6.2699   -3.3391    6.7207 C   0  0  0  0  0  0  0  0  0  0  0  0
   -4.8228   -3.3574    7.0298 N   0  0  0  0  0  0  0  0  0  0  0  0
   -2.7503   -0.6210    7.4388 C   0  0  0  0  0  0  0  0  0  0  0  0
   -3.7260   -0.3648    8.5208 C   0  0  0  0  0  0  0  0  0  0  0  0
    0.7298   -2.2422    9.2549 H   0  0  0  0  0  0  0  0  0  0  0  0
    1.4125   -0.6741   12.0830 H   0  0  0  0  0  0  0  0  0  0  0  0
    2.0265   -0.2154   10.1684 H   0  0  0  0  0  0  0  0  0  0  0  0
    4.2774    0.2104   10.6255 H   0  0  0  0  0  0  0  0  0  0  0  0
    3.9835   -1.6808   11.4637 H   0  0  0  0  0  0  0  0  0  0  0  0
    6.6101   -0.9363   11.1945 H   0  0  0  0  0  0  0  0  0  0  0  0
    6.0208   -2.0530   12.4576 H   0  0  0  0  0  0  0  0  0  0  0  0
    8.4328    0.6497   14.1017 H   0  0  0  0  0  0  0  0  0  0  0  0
   11.7347   -0.4393   15.1615 H   0  0  0  0  0  0  0  0  0  0  0  0
   10.5104    1.0223   16.6188 H   0  0  0  0  0  0  0  0  0  0  0  0
    8.2082    0.5280   17.2338 H   0  0  0  0  0  0  0  0  0  0  0  0
    6.8929   -1.1597   16.0609 H   0  0  0  0  0  0  0  0  0  0  0  0
   -4.9845   -1.9762    8.6115 H   0  0  0  0  0  0  0  0  0  0  0  0
   -6.0519   -0.5268    7.9834 H   0  0  0  0  0  0  0  0  0  0  0  0
   -5.2763   -0.2578    6.4845 H   0  0  0  0  0  0  0  0  0  0  0  0
   -7.6538   -1.7254    7.0748 H   0  0  0  0  0  0  0  0  0  0  0  0
   -6.8728   -1.6523    5.5014 H   0  0  0  0  0  0  0  0  0  0  0  0
   -6.4738   -3.9083    5.8069 H   0  0  0  0  0  0  0  0  0  0  0  0
   -6.8488   -3.8361    7.5023 H   0  0  0  0  0  0  0  0  0  0  0  0
   -4.3833   -3.3928    6.1317 H   0  0  0  0  0  0  0  0  0  0  0  0
   -1.9237    0.0007    7.5949 H   0  0  0  0  0  0  0  0  0  0  0  0
   -3.1112   -0.6289    6.4466 H   0  0  0  0  0  0  0  0  0  0  0  0
   -4.1775   -0.6448    9.4800 H   0  0  0  0  0  0  0  0  0  0  0  0
   -3.7013    0.6525    8.9194 H   0  0  0  0  0  0  0  0  0  0  0  0
  1  2  2  0
  2  3  1  0
  3  4  1  0
  4  5  1  0
  5  6  1  0
  6  7  1  0
  7  8  1  0
  8  9  2  0
  9 10  1  0
 10 11  2  0
 11 12  1  0
 12 13  2  0
 13 14  1  0
 14 15  2  0
  2 16  1  0
 16 17  1  0
 17 18  1  0
 18 19  1  0
 19 20  1  0
 20 21  1  0
 16 22  1  0
 22 23  1  0
 15  7  1  0
 23 16  1  0
 15 10  1  0
 21 17  1  0
  3 24  1  0
  4 25  1  0
  4 26  1  0
  5 27  1  0
  5 28  1  0
  6 29  1  0
  6 30  1  0
  8 31  1  0
 11 32  1  0
 12 33  1  0
 13 34  1  0
 14 35  1  0
 17 36  1  0
 18 37  1  0
 18 38  1  0
 19 39  1  0
 19 40  1  0
 20 41  1  0
 20 42  1  0
 21 43  1  0
 22 44  1  0
 22 45  1  0
 23 46  1  0
 23 47  1  0
M  END
>  <Energy>  (1187) 
1250.245065085734

>  <compound_id>  (1187) 
9202

>  <target_id>  (1187) 
1

>  <reference_id>  (1187) 
103

>  <inspiration_ids>  (1187) 
[103, 95]

>  <energy_score>  (1187) 
1200.5913018175602

>  <distance_score>  (1187) 
5.666446027738902

>  <path>  (1187) 
/opt/xchem-fragalysis-2/maxwin/BulkDock/SCRATCH/511014/C9202-P103/C9202-P103.minimised.mol

>  <scratch_subdir>  (1187) 
/opt/xchem-fragalysis-2/maxwin/BulkDock/SCRATCH/511014/C9202-P103

>  <fragmenstein_runtime>  (1187) 
11.717249393463135

>  <fragmenstein_outcome>  (1187) 
too moved

>  <fragmenstein_mode>  (1187) 
expansion

>  <fragmenstein_error>  (1187) 


$$$$
C9202-P95
     RDKit          3D

 47 50  0  0  0  0  0  0  0  0999 V2000
    3.0593    6.5800   10.1169 O   0  0  0  0  0  0  0  0  0  0  0  0
    3.5040    5.5115    9.8217 C   0  0  0  0  0  0  0  0  0  0  0  0
    4.6775    4.8142   10.3007 N   0  0  0  0  0  0  0  0  0  0  0  0
    5.6319    5.1519   11.3649 C   0  0  0  0  0  0  0  0  0  0  0  0
    6.7901    6.1505   11.1866 C   0  0  0  0  0  0  0  0  0  0  0  0
    8.2517    5.6932   11.6270 C   0  0  0  0  0  0  0  0  0  0  0  0
    8.5779    5.0905   12.9085 N   0  0  0  0  0  0  0  0  0  0  0  0
    7.9701    5.3638   14.1012 C   0  0  0  0  0  0  0  0  0  0  0  0
    8.4416    4.6209   15.0764 N   0  0  0  0  0  0  0  0  0  0  0  0
    9.4336    3.8588   14.5245 C   0  0  0  0  0  0  0  0  0  0  0  0
   10.2192    2.8537   15.1160 C   0  0  0  0  0  0  0  0  0  0  0  0
   11.1628    2.1764   14.3378 C   0  0  0  0  0  0  0  0  0  0  0  0
   11.3485    2.5258   13.0019 C   0  0  0  0  0  0  0  0  0  0  0  0
   10.5836    3.5385   12.3974 C   0  0  0  0  0  0  0  0  0  0  0  0
    9.5909    4.1664   13.1710 C   0  0  0  0  0  0  0  0  0  0  0  0
    2.5937    4.6605    8.8031 C   0  0  0  0  0  0  0  0  0  0  0  0
    1.1970    5.2502    8.4304 C   0  0  0  0  0  0  0  0  0  0  0  0
    0.2761    5.5199    9.6098 C   0  0  0  0  0  0  0  0  0  0  0  0
   -1.0663    5.7836    8.9455 C   0  0  0  0  0  0  0  0  0  0  0  0
   -1.0300    4.9679    7.6678 C   0  0  0  0  0  0  0  0  0  0  0  0
    0.3168    4.3749    7.5897 N   0  0  0  0  0  0  0  0  0  0  0  0
    2.6975    3.1334    8.7980 C   0  0  0  0  0  0  0  0  0  0  0  0
    3.3211    3.9101    7.6824 C   0  0  0  0  0  0  0  0  0  0  0  0
    4.7952    3.9627    9.7692 H   0  0  0  0  0  0  0  0  0  0  0  0
    5.0368    5.4430   12.2371 H   0  0  0  0  0  0  0  0  0  0  0  0
    6.0888    4.2024   11.5685 H   0  0  0  0  0  0  0  0  0  0  0  0
    6.8460    6.4522   10.1335 H   0  0  0  0  0  0  0  0  0  0  0  0
    6.5445    7.0578   11.7528 H   0  0  0  0  0  0  0  0  0  0  0  0
    8.9020    6.5747   11.5540 H   0  0  0  0  0  0  0  0  0  0  0  0
    8.5957    5.0000   10.8645 H   0  0  0  0  0  0  0  0  0  0  0  0
    7.1769    6.0940   14.2072 H   0  0  0  0  0  0  0  0  0  0  0  0
   10.0717    2.6146   16.1643 H   0  0  0  0  0  0  0  0  0  0  0  0
   11.7667    1.3907   14.7847 H   0  0  0  0  0  0  0  0  0  0  0  0
   12.1100    2.0104   12.4187 H   0  0  0  0  0  0  0  0  0  0  0  0
   10.7583    3.8085   11.3614 H   0  0  0  0  0  0  0  0  0  0  0  0
    1.3774    6.1838    7.8794 H   0  0  0  0  0  0  0  0  0  0  0  0
    0.5837    6.3851   10.2040 H   0  0  0  0  0  0  0  0  0  0  0  0
    0.2445    4.6598   10.2852 H   0  0  0  0  0  0  0  0  0  0  0  0
   -1.1437    6.8492    8.6950 H   0  0  0  0  0  0  0  0  0  0  0  0
   -1.9126    5.5465    9.5943 H   0  0  0  0  0  0  0  0  0  0  0  0
   -1.2138    5.6115    6.8001 H   0  0  0  0  0  0  0  0  0  0  0  0
   -1.8035    4.2001    7.6801 H   0  0  0  0  0  0  0  0  0  0  0  0
    0.6531    4.4242    6.6283 H   0  0  0  0  0  0  0  0  0  0  0  0
    3.3256    2.6302    9.5223 H   0  0  0  0  0  0  0  0  0  0  0  0
    1.8315    2.5398    8.5487 H   0  0  0  0  0  0  0  0  0  0  0  0
    2.8639    3.8395    6.7017 H   0  0  0  0  0  0  0  0  0  0  0  0
    4.4021    3.9580    7.6245 H   0  0  0  0  0  0  0  0  0  0  0  0
  1  2  2  0
  2  3  1  0
  3  4  1  0
  4  5  1  0
  5  6  1  0
  6  7  1  0
  7  8  1  0
  8  9  2  0
  9 10  1  0
 10 11  2  0
 11 12  1  0
 12 13  2  0
 13 14  1  0
 14 15  2  0
  2 16  1  0
 16 17  1  0
 17 18  1  0
 18 19  1  0
 19 20  1  0
 20 21  1  0
 16 22  1  0
 22 23  1  0
 15  7  1  0
 23 16  1  0
 15 10  1  0
 21 17  1  0
  3 24  1  0
  4 25  1  0
  4 26  1  0
  5 27  1  0
  5 28  1  0
  6 29  1  0
  6 30  1  0
  8 31  1  0
 11 32  1  0
 12 33  1  0
 13 34  1  0
 14 35  1  0
 17 36  1  0
 18 37  1  0
 18 38  1  0
 19 39  1  0
 19 40  1  0
 20 41  1  0
 20 42  1  0
 21 43  1  0
 22 44  1  0
 22 45  1  0
 23 46  1  0
 23 47  1  0
M  END
>  <Energy>  (1188) 
31.965837944789715

>  <compound_id>  (1188) 
9202

>  <target_id>  (1188) 
1

>  <reference_id>  (1188) 
95

>  <inspiration_ids>  (1188) 
[103, 95]

>  <energy_score>  (1188) 
-17.68792532339762

>  <distance_score>  (1188) 
10.11955074944519

>  <path>  (1188) 
/opt/xchem-fragalysis-2/maxwin/BulkDock/SCRATCH/511014/C9202-P95/C9202-P95.minimised.mol

>  <scratch_subdir>  (1188) 
/opt/xchem-fragalysis-2/maxwin/BulkDock/SCRATCH/511014/C9202-P95

>  <fragmenstein_runtime>  (1188) 
14.13317584991455

>  <fragmenstein_outcome>  (1188) 
too moved

>  <fragmenstein_mode>  (1188) 
expansion

>  <fragmenstein_error>  (1188) 


$$$$
C9203-P103
     RDKit          3D

 43 45  0  0  0  0  0  0  0  0999 V2000
    8.3460    0.8470   15.4009 C   0  0  0  0  0  0  0  0  0  0  0  0
    8.4165    0.3063   13.6019 C   0  0  0  0  0  0  0  0  0  0  0  0
    9.6538    0.2046   13.3190 N   0  0  0  0  0  0  0  0  0  0  0  0
    9.5206   -0.7772   14.2180 C   0  0  0  0  0  0  0  0  0  0  0  0
   10.5580   -1.3537   14.9373 C   0  0  0  0  0  0  0  0  0  0  0  0
   10.2804   -2.6526   15.1026 C   0  0  0  0  0  0  0  0  0  0  0  0
    8.9275   -3.0839   14.9388 C   0  0  0  0  0  0  0  0  0  0  0  0
    7.6791   -2.4783   14.7078 C   0  0  0  0  0  0  0  0  0  0  0  0
    7.9901   -1.4135   13.9918 C   0  0  0  0  0  0  0  0  0  0  0  0
    7.3079   -0.6518   12.7347 N   0  0  0  0  0  0  0  0  0  0  0  0
    5.5369   -0.7014   11.8936 C   0  0  0  0  0  0  0  0  0  0  0  0
    3.5569   -0.0621   11.2183 C   0  0  0  0  0  0  0  0  0  0  0  0
    1.6976   -0.9597   10.4334 C   0  0  0  0  0  0  0  0  0  0  0  0
   -0.2500   -1.0132   10.4472 N   0  0  0  0  0  0  0  0  0  0  0  0
   -1.6221   -1.1322    8.9579 C   0  0  0  0  0  0  0  0  0  0  0  0
   -1.3918   -1.2990    7.7237 O   0  0  0  0  0  0  0  0  0  0  0  0
   -3.4490   -0.8465    9.1834 C   0  0  0  0  0  0  0  0  0  0  0  0
   -3.9825    0.0416    8.1302 C   0  0  0  0  0  0  0  0  0  0  0  0
   -5.3436   -0.0703    7.4318 C   0  0  0  0  0  0  0  0  0  0  0  0
   -5.4996   -1.4907    7.7068 C   0  0  0  0  0  0  0  0  0  0  0  0
   -4.8832   -1.3195    9.0238 N   0  0  0  0  0  0  0  0  0  0  0  0
    9.3856    1.0608   15.6932 H   0  0  0  0  0  0  0  0  0  0  0  0
    7.9354    0.0386   16.0135 H   0  0  0  0  0  0  0  0  0  0  0  0
    7.8268    1.7937   15.5805 H   0  0  0  0  0  0  0  0  0  0  0  0
   11.5539   -0.9377   14.9674 H   0  0  0  0  0  0  0  0  0  0  0  0
   11.0539   -3.3722   15.3569 H   0  0  0  0  0  0  0  0  0  0  0  0
    8.8782   -4.1329   15.1059 H   0  0  0  0  0  0  0  0  0  0  0  0
    6.7150   -2.9418   14.6743 H   0  0  0  0  0  0  0  0  0  0  0  0
    5.7217   -1.7356   12.2853 H   0  0  0  0  0  0  0  0  0  0  0  0
    6.1295   -0.6826   10.9505 H   0  0  0  0  0  0  0  0  0  0  0  0
    3.9364    0.5301   10.3515 H   0  0  0  0  0  0  0  0  0  0  0  0
    3.1908    0.8949   11.6799 H   0  0  0  0  0  0  0  0  0  0  0  0
    1.8422   -2.0118   10.3343 H   0  0  0  0  0  0  0  0  0  0  0  0
    1.6363   -0.3559    9.5422 H   0  0  0  0  0  0  0  0  0  0  0  0
   -0.7266   -0.9606   11.3622 H   0  0  0  0  0  0  0  0  0  0  0  0
   -3.3205   -1.8687    8.7544 H   0  0  0  0  0  0  0  0  0  0  0  0
   -3.3192   -0.2842    7.3292 H   0  0  0  0  0  0  0  0  0  0  0  0
   -4.0536    0.9977    8.6595 H   0  0  0  0  0  0  0  0  0  0  0  0
   -5.3420    0.2193    6.3805 H   0  0  0  0  0  0  0  0  0  0  0  0
   -6.1048    0.5521    7.9237 H   0  0  0  0  0  0  0  0  0  0  0  0
   -6.5492   -1.7915    7.7489 H   0  0  0  0  0  0  0  0  0  0  0  0
   -4.9393   -2.1920    7.0881 H   0  0  0  0  0  0  0  0  0  0  0  0
   -5.4926   -0.6701    9.5191 H   0  0  0  0  0  0  0  0  0  0  0  0
  1  2  1  0
  2  3  2  0
  3  4  1  0
  4  5  2  0
  5  6  1  0
  6  7  2  0
  7  8  1  0
  8  9  2  0
  9 10  1  0
 10 11  1  0
 11 12  1  0
 12 13  1  0
 13 14  1  0
 14 15  1  0
 15 16  2  0
 15 17  1  0
 17 18  1  0
 18 19  1  0
 19 20  1  0
 20 21  1  0
 10  2  1  0
 21 17  1  0
  9  4  1  0
  1 22  1  0
  1 23  1  0
  1 24  1  0
  5 25  1  0
  6 26  1  0
  7 27  1  0
  8 28  1  0
 11 29  1  0
 11 30  1  0
 12 31  1  0
 12 32  1  0
 13 33  1  0
 13 34  1  0
 14 35  1  0
 17 36  1  0
 18 37  1  0
 18 38  1  0
 19 39  1  0
 19 40  1  0
 20 41  1  0
 20 42  1  0
 21 43  1  0
M  END
>  <Energy>  (1189) 
1157.4343574745649

>  <compound_id>  (1189) 
9203

>  <target_id>  (1189) 
1

>  <reference_id>  (1189) 
103

>  <inspiration_ids>  (1189) 
[103, 95]

>  <energy_score>  (1189) 
1096.43166899104

>  <distance_score>  (1189) 
6.686817911602898

>  <path>  (1189) 
/opt/xchem-fragalysis-2/maxwin/BulkDock/SCRATCH/511014/C9203-P103/C9203-P103.minimised.mol

>  <scratch_subdir>  (1189) 
/opt/xchem-fragalysis-2/maxwin/BulkDock/SCRATCH/511014/C9203-P103

>  <fragmenstein_runtime>  (1189) 
8.674859762191772

>  <fragmenstein_outcome>  (1189) 
too moved

>  <fragmenstein_mode>  (1189) 
expansion

>  <fragmenstein_error>  (1189) 


$$$$
C9203-P95
     RDKit          3D

 43 45  0  0  0  0  0  0  0  0999 V2000
    8.9577    0.7666   12.7094 C   0  0  0  0  0  0  0  0  0  0  0  0
    7.5062   -0.2216   11.9943 C   0  0  0  0  0  0  0  0  0  0  0  0
    7.5019   -0.4374   13.2742 N   0  0  0  0  0  0  0  0  0  0  0  0
    7.7058   -1.6976   13.4127 C   0  0  0  0  0  0  0  0  0  0  0  0
    8.6337   -2.0745   14.4779 C   0  0  0  0  0  0  0  0  0  0  0  0
    8.4108   -1.2212   15.4785 C   0  0  0  0  0  0  0  0  0  0  0  0
    7.0751   -1.1476   15.5896 C   0  0  0  0  0  0  0  0  0  0  0  0
    6.1147   -1.9941   14.6128 C   0  0  0  0  0  0  0  0  0  0  0  0
    6.3436   -1.8248   13.2736 C   0  0  0  0  0  0  0  0  0  0  0  0
    5.8354   -0.6947   12.0966 N   0  0  0  0  0  0  0  0  0  0  0  0
    4.1729   -0.2706   11.0457 C   0  0  0  0  0  0  0  0  0  0  0  0
    2.1955   -1.0793   10.9596 C   0  0  0  0  0  0  0  0  0  0  0  0
    0.4208   -1.3995    9.8769 C   0  0  0  0  0  0  0  0  0  0  0  0
   -1.4584   -1.0175    9.0089 N   0  0  0  0  0  0  0  0  0  0  0  0
   -2.6337   -1.9846    8.5091 C   0  0  0  0  0  0  0  0  0  0  0  0
   -2.7549   -3.1804    8.5869 O   0  0  0  0  0  0  0  0  0  0  0  0
   -3.8926   -1.3673    7.8234 C   0  0  0  0  0  0  0  0  0  0  0  0
   -4.8344   -0.3083    8.3122 C   0  0  0  0  0  0  0  0  0  0  0  0
   -5.7635   -0.0800    7.1152 C   0  0  0  0  0  0  0  0  0  0  0  0
   -5.1793   -0.8960    5.9566 C   0  0  0  0  0  0  0  0  0  0  0  0
   -3.8148   -1.2762    6.3596 N   0  0  0  0  0  0  0  0  0  0  0  0
    8.9223    0.8713   13.8106 H   0  0  0  0  0  0  0  0  0  0  0  0
    9.9615    0.3503   12.5494 H   0  0  0  0  0  0  0  0  0  0  0  0
    9.1610    1.7444   12.3003 H   0  0  0  0  0  0  0  0  0  0  0  0
    9.6752   -2.3156   14.2751 H   0  0  0  0  0  0  0  0  0  0  0  0
    9.1463   -0.7903   16.1263 H   0  0  0  0  0  0  0  0  0  0  0  0
    6.6651   -0.6036   16.4462 H   0  0  0  0  0  0  0  0  0  0  0  0
    5.1451   -2.3477   14.9322 H   0  0  0  0  0  0  0  0  0  0  0  0
    4.6619    0.1222   10.1662 H   0  0  0  0  0  0  0  0  0  0  0  0
    3.8920    0.8346   11.2949 H   0  0  0  0  0  0  0  0  0  0  0  0
    1.6842   -0.7548   11.9021 H   0  0  0  0  0  0  0  0  0  0  0  0
    2.6072   -2.0654   10.9163 H   0  0  0  0  0  0  0  0  0  0  0  0
   -0.0425   -1.2485   10.8839 H   0  0  0  0  0  0  0  0  0  0  0  0
    1.0630   -0.7206    9.3156 H   0  0  0  0  0  0  0  0  0  0  0  0
   -1.6459   -0.0801    8.7047 H   0  0  0  0  0  0  0  0  0  0  0  0
   -4.5691   -2.2312    7.8924 H   0  0  0  0  0  0  0  0  0  0  0  0
   -4.3310    0.5859    8.6504 H   0  0  0  0  0  0  0  0  0  0  0  0
   -5.4388   -0.6322    9.1527 H   0  0  0  0  0  0  0  0  0  0  0  0
   -5.8256    0.9857    6.8722 H   0  0  0  0  0  0  0  0  0  0  0  0
   -6.7805   -0.4194    7.3433 H   0  0  0  0  0  0  0  0  0  0  0  0
   -5.7831   -1.7976    5.7973 H   0  0  0  0  0  0  0  0  0  0  0  0
   -5.1704   -0.3293    5.0209 H   0  0  0  0  0  0  0  0  0  0  0  0
   -3.5890   -2.1938    5.9752 H   0  0  0  0  0  0  0  0  0  0  0  0
  1  2  1  0
  2  3  2  0
  3  4  1  0
  4  5  2  0
  5  6  1  0
  6  7  2  0
  7  8  1  0
  8  9  2  0
  9 10  1  0
 10 11  1  0
 11 12  1  0
 12 13  1  0
 13 14  1  0
 14 15  1  0
 15 16  2  0
 15 17  1  0
 17 18  1  0
 18 19  1  0
 19 20  1  0
 20 21  1  0
 10  2  1  0
 21 17  1  0
  9  4  1  0
  1 22  1  0
  1 23  1  0
  1 24  1  0
  5 25  1  0
  6 26  1  0
  7 27  1  0
  8 28  1  0
 11 29  1  0
 11 30  1  0
 12 31  1  0
 12 32  1  0
 13 33  1  0
 13 34  1  0
 14 35  1  0
 17 36  1  0
 18 37  1  0
 18 38  1  0
 19 39  1  0
 19 40  1  0
 20 41  1  0
 20 42  1  0
 21 43  1  0
M  END
>  <Energy>  (1190) 
1064.4592797765363

>  <compound_id>  (1190) 
9203

>  <target_id>  (1190) 
1

>  <reference_id>  (1190) 
95

>  <inspiration_ids>  (1190) 
[103, 95]

>  <energy_score>  (1190) 
1003.4565912930074

>  <distance_score>  (1190) 
7.0230454881740245

>  <path>  (1190) 
/opt/xchem-fragalysis-2/maxwin/BulkDock/SCRATCH/511014/C9203-P95/C9203-P95.minimised.mol

>  <scratch_subdir>  (1190) 
/opt/xchem-fragalysis-2/maxwin/BulkDock/SCRATCH/511014/C9203-P95

>  <fragmenstein_runtime>  (1190) 
8.726257562637329

>  <fragmenstein_outcome>  (1190) 
too moved

>  <fragmenstein_mode>  (1190) 
expansion

>  <fragmenstein_error>  (1190) 


$$$$
C9211-P103
     RDKit          3D

 44 47  0  0  0  0  0  0  0  0999 V2000
    4.1884    5.7384    8.3530 O   0  0  0  0  0  0  0  0  0  0  0  0
    3.6475    4.7623    7.9008 C   0  0  0  0  0  0  0  0  0  0  0  0
    3.5473    3.4203    8.4150 N   0  0  0  0  0  0  0  0  0  0  0  0
    3.9761    2.8572    9.6659 C   0  0  0  0  0  0  0  0  0  0  0  0
    4.4974    1.4835    9.8352 C   0  0  0  0  0  0  0  0  0  0  0  0
    4.1281    0.6122   10.8450 C   0  0  0  0  0  0  0  0  0  0  0  0
    5.2030   -0.5558   11.6509 C   0  0  0  0  0  0  0  0  0  0  0  0
    6.7192   -0.8950   11.7198 C   0  0  0  0  0  0  0  0  0  0  0  0
    7.9387   -0.4485   12.9795 N   0  0  0  0  0  0  0  0  0  0  0  0
    9.1563    0.4883   13.1224 C   0  0  0  0  0  0  0  0  0  0  0  0
    9.5138    0.8426   14.3358 N   0  0  0  0  0  0  0  0  0  0  0  0
    9.4139   -0.3110   14.9266 C   0  0  0  0  0  0  0  0  0  0  0  0
   10.4975   -0.7824   15.6766 C   0  0  0  0  0  0  0  0  0  0  0  0
   10.7483   -2.1114   15.5138 C   0  0  0  0  0  0  0  0  0  0  0  0
    9.7283   -2.8817   14.9841 C   0  0  0  0  0  0  0  0  0  0  0  0
    8.3851   -2.4135   14.7143 C   0  0  0  0  0  0  0  0  0  0  0  0
    8.3549   -1.0885   14.3840 C   0  0  0  0  0  0  0  0  0  0  0  0
    6.7127   -0.3262   10.3743 C   0  0  0  0  0  0  0  0  0  0  0  0
    5.7224    0.9590    9.4629 C   0  0  0  0  0  0  0  0  0  0  0  0
    2.8334    5.0015    6.6001 C   0  0  0  0  0  0  0  0  0  0  0  0
    3.2871    4.3238    5.3372 C   0  0  0  0  0  0  0  0  0  0  0  0
    2.0925    4.5672    4.4292 C   0  0  0  0  0  0  0  0  0  0  0  0
    0.8915    4.5042    5.3564 C   0  0  0  0  0  0  0  0  0  0  0  0
    1.4038    4.6087    6.7372 N   0  0  0  0  0  0  0  0  0  0  0  0
    3.0883    2.8375    7.7273 H   0  0  0  0  0  0  0  0  0  0  0  0
    3.1028    2.9735   10.3153 H   0  0  0  0  0  0  0  0  0  0  0  0
    4.7174    3.5500   10.0848 H   0  0  0  0  0  0  0  0  0  0  0  0
    3.1632    0.7403   11.3023 H   0  0  0  0  0  0  0  0  0  0  0  0
    4.4079   -1.3032   11.6609 H   0  0  0  0  0  0  0  0  0  0  0  0
    9.6861    1.0746   12.3914 H   0  0  0  0  0  0  0  0  0  0  0  0
   11.2829   -0.1053   15.9974 H   0  0  0  0  0  0  0  0  0  0  0  0
   11.6988   -2.5520   15.7956 H   0  0  0  0  0  0  0  0  0  0  0  0
    9.9737   -3.9346   14.9098 H   0  0  0  0  0  0  0  0  0  0  0  0
    7.6072   -3.0199   14.3195 H   0  0  0  0  0  0  0  0  0  0  0  0
    7.1901   -1.0116    9.6800 H   0  0  0  0  0  0  0  0  0  0  0  0
    5.9937    1.0852    8.3941 H   0  0  0  0  0  0  0  0  0  0  0  0
    2.8413    6.0900    6.4383 H   0  0  0  0  0  0  0  0  0  0  0  0
    3.5013    3.2671    5.5042 H   0  0  0  0  0  0  0  0  0  0  0  0
    4.1969    4.7777    4.9309 H   0  0  0  0  0  0  0  0  0  0  0  0
    2.1670    5.5750    3.9999 H   0  0  0  0  0  0  0  0  0  0  0  0
    2.0382    3.8691    3.5906 H   0  0  0  0  0  0  0  0  0  0  0  0
    0.3719    3.5633    5.1951 H   0  0  0  0  0  0  0  0  0  0  0  0
    0.1885    5.3167    5.1475 H   0  0  0  0  0  0  0  0  0  0  0  0
    1.3614    3.6989    7.1726 H   0  0  0  0  0  0  0  0  0  0  0  0
  1  2  2  0
  2  3  1  0
  3  4  1  0
  4  5  1  0
  5  6  2  0
  6  7  1  0
  7  8  2  0
  8  9  1  0
  9 10  1  0
 10 11  2  0
 11 12  1  0
 12 13  2  0
 13 14  1  0
 14 15  2  0
 15 16  1  0
 16 17  2  0
  8 18  1  0
 18 19  2  0
  2 20  1  0
 20 21  1  0
 21 22  1  0
 22 23  1  0
 23 24  1  0
 19  5  1  0
 24 20  1  0
 17  9  1  0
 17 12  1  0
  3 25  1  0
  4 26  1  0
  4 27  1  0
  6 28  1  0
  7 29  1  0
 10 30  1  0
 13 31  1  0
 14 32  1  0
 15 33  1  0
 16 34  1  0
 18 35  1  0
 19 36  1  0
 20 37  1  0
 21 38  1  0
 21 39  1  0
 22 40  1  0
 22 41  1  0
 23 42  1  0
 23 43  1  0
 24 44  1  0
M  END
>  <Energy>  (1191) 
457.03304726396527

>  <compound_id>  (1191) 
9211

>  <target_id>  (1191) 
1

>  <reference_id>  (1191) 
103

>  <inspiration_ids>  (1191) 
[103, 95]

>  <energy_score>  (1191) 
343.11387043772754

>  <distance_score>  (1191) 
10.124015947608694

>  <path>  (1191) 
/opt/xchem-fragalysis-2/maxwin/BulkDock/SCRATCH/511014/C9211-P103/C9211-P103.minimised.mol

>  <scratch_subdir>  (1191) 
/opt/xchem-fragalysis-2/maxwin/BulkDock/SCRATCH/511014/C9211-P103

>  <fragmenstein_runtime>  (1191) 
18.167825937271118

>  <fragmenstein_outcome>  (1191) 
too moved

>  <fragmenstein_mode>  (1191) 
expansion

>  <fragmenstein_error>  (1191) 


$$$$
C9211-P95
     RDKit          3D

 44 47  0  0  0  0  0  0  0  0999 V2000
   -2.8357    0.6090    8.7539 O   0  0  0  0  0  0  0  0  0  0  0  0
   -2.6576   -0.5426    8.4614 C   0  0  0  0  0  0  0  0  0  0  0  0
   -1.5611   -1.4653    8.8110 N   0  0  0  0  0  0  0  0  0  0  0  0
    0.1636   -1.1647    9.8100 C   0  0  0  0  0  0  0  0  0  0  0  0
    1.8483   -1.5285    9.9828 C   0  0  0  0  0  0  0  0  0  0  0  0
    3.1361   -2.7254    9.6363 C   0  0  0  0  0  0  0  0  0  0  0  0
    4.2145   -3.5577   10.8883 C   0  0  0  0  0  0  0  0  0  0  0  0
    4.9603   -3.0753   11.9864 C   0  0  0  0  0  0  0  0  0  0  0  0
    6.2094   -2.0268   12.9621 N   0  0  0  0  0  0  0  0  0  0  0  0
    6.0433   -1.9920   14.3637 C   0  0  0  0  0  0  0  0  0  0  0  0
    6.7912   -1.0387   14.9779 N   0  0  0  0  0  0  0  0  0  0  0  0
    7.9061   -0.8530   14.2851 C   0  0  0  0  0  0  0  0  0  0  0  0
    9.0311   -0.1020   14.7232 C   0  0  0  0  0  0  0  0  0  0  0  0
   10.1991   -0.8056   14.9105 C   0  0  0  0  0  0  0  0  0  0  0  0
   10.0534   -2.1656   14.8855 C   0  0  0  0  0  0  0  0  0  0  0  0
    8.7735   -2.7293   14.5382 C   0  0  0  0  0  0  0  0  0  0  0  0
    7.8033   -2.0500   13.6330 C   0  0  0  0  0  0  0  0  0  0  0  0
    3.7250   -2.4732   11.6233 C   0  0  0  0  0  0  0  0  0  0  0  0
    2.1256   -1.6771   11.1775 C   0  0  0  0  0  0  0  0  0  0  0  0
   -3.6914   -1.1658    7.4601 C   0  0  0  0  0  0  0  0  0  0  0  0
   -5.1367   -0.8166    7.7729 C   0  0  0  0  0  0  0  0  0  0  0  0
   -5.9306   -1.7135    6.8512 C   0  0  0  0  0  0  0  0  0  0  0  0
   -4.9570   -2.8072    6.4381 C   0  0  0  0  0  0  0  0  0  0  0  0
   -3.6811   -2.6029    7.1557 N   0  0  0  0  0  0  0  0  0  0  0  0
   -1.7794   -2.3721    8.4639 H   0  0  0  0  0  0  0  0  0  0  0  0
    0.6852   -0.3078    9.3947 H   0  0  0  0  0  0  0  0  0  0  0  0
   -0.1972   -1.1599   10.8786 H   0  0  0  0  0  0  0  0  0  0  0  0
    3.0475   -3.3138    8.6919 H   0  0  0  0  0  0  0  0  0  0  0  0
    4.3103   -4.6205   10.6273 H   0  0  0  0  0  0  0  0  0  0  0  0
    5.2437   -2.5615   14.8090 H   0  0  0  0  0  0  0  0  0  0  0  0
    8.9221    0.9024   15.1150 H   0  0  0  0  0  0  0  0  0  0  0  0
   11.1126   -0.3330   15.2446 H   0  0  0  0  0  0  0  0  0  0  0  0
   10.8464   -2.8146   15.2528 H   0  0  0  0  0  0  0  0  0  0  0  0
    8.6915   -3.7356   14.8967 H   0  0  0  0  0  0  0  0  0  0  0  0
    3.9533   -1.3926   11.2947 H   0  0  0  0  0  0  0  0  0  0  0  0
    1.5049   -1.1187   11.9164 H   0  0  0  0  0  0  0  0  0  0  0  0
   -3.4510   -0.7541    6.4852 H   0  0  0  0  0  0  0  0  0  0  0  0
   -5.3731    0.2376    7.6022 H   0  0  0  0  0  0  0  0  0  0  0  0
   -5.3731   -1.0251    8.8142 H   0  0  0  0  0  0  0  0  0  0  0  0
   -6.8158   -2.1134    7.3556 H   0  0  0  0  0  0  0  0  0  0  0  0
   -6.2682   -1.1566    5.9698 H   0  0  0  0  0  0  0  0  0  0  0  0
   -4.7726   -2.7649    5.3586 H   0  0  0  0  0  0  0  0  0  0  0  0
   -5.3989   -3.7753    6.6546 H   0  0  0  0  0  0  0  0  0  0  0  0
   -3.6549   -3.1624    7.9916 H   0  0  0  0  0  0  0  0  0  0  0  0
  1  2  2  0
  2  3  1  0
  3  4  1  0
  4  5  1  0
  5  6  2  0
  6  7  1  0
  7  8  2  0
  8  9  1  0
  9 10  1  0
 10 11  2  0
 11 12  1  0
 12 13  2  0
 13 14  1  0
 14 15  2  0
 15 16  1  0
 16 17  2  0
  8 18  1  0
 18 19  2  0
  2 20  1  0
 20 21  1  0
 21 22  1  0
 22 23  1  0
 23 24  1  0
 19  5  1  0
 24 20  1  0
 17  9  1  0
 17 12  1  0
  3 25  1  0
  4 26  1  0
  4 27  1  0
  6 28  1  0
  7 29  1  0
 10 30  1  0
 13 31  1  0
 14 32  1  0
 15 33  1  0
 16 34  1  0
 18 35  1  0
 19 36  1  0
 20 37  1  0
 21 38  1  0
 21 39  1  0
 22 40  1  0
 22 41  1  0
 23 42  1  0
 23 43  1  0
 24 44  1  0
M  END
>  <Energy>  (1192) 
968.94162850747955

>  <compound_id>  (1192) 
9211

>  <target_id>  (1192) 
1

>  <reference_id>  (1192) 
95

>  <inspiration_ids>  (1192) 
[103, 95]

>  <energy_score>  (1192) 
855.0224516812488

>  <distance_score>  (1192) 
6.790053971248574

>  <path>  (1192) 
/opt/xchem-fragalysis-2/maxwin/BulkDock/SCRATCH/511014/C9211-P95/C9211-P95.minimised.mol

>  <scratch_subdir>  (1192) 
/opt/xchem-fragalysis-2/maxwin/BulkDock/SCRATCH/511014/C9211-P95

>  <fragmenstein_runtime>  (1192) 
15.10561466217041

>  <fragmenstein_outcome>  (1192) 
too moved

>  <fragmenstein_mode>  (1192) 
expansion

>  <fragmenstein_error>  (1192) 


$$$$
C9212-P103
     RDKit          3D

 41 44  0  0  0  0  0  0  0  0999 V2000
   -2.4261   -2.6262    8.3197 O   0  0  0  0  0  0  0  0  0  0  0  0
   -2.4788   -1.4625    8.5540 C   0  0  0  0  0  0  0  0  0  0  0  0
   -1.4331   -0.5033    9.2830 N   0  0  0  0  0  0  0  0  0  0  0  0
    0.4600   -0.8329    9.9830 C   0  0  0  0  0  0  0  0  0  0  0  0
    1.8563    0.3461    9.5777 C   0  0  0  0  0  0  0  0  0  0  0  0
    3.5229    0.8431   10.2594 C   0  0  0  0  0  0  0  0  0  0  0  0
    4.2449   -0.0272   11.1749 C   0  0  0  0  0  0  0  0  0  0  0  0
    5.8225   -0.6824   12.0570 N   0  0  0  0  0  0  0  0  0  0  0  0
    6.2004   -2.0204   12.3908 C   0  0  0  0  0  0  0  0  0  0  0  0
    6.2357   -2.3730   13.6440 N   0  0  0  0  0  0  0  0  0  0  0  0
    7.3381   -1.7315   13.8237 C   0  0  0  0  0  0  0  0  0  0  0  0
    8.1917   -1.9001   14.9259 C   0  0  0  0  0  0  0  0  0  0  0  0
    9.2855   -1.1075   15.2125 C   0  0  0  0  0  0  0  0  0  0  0  0
    9.5318   -0.0627   14.3774 C   0  0  0  0  0  0  0  0  0  0  0  0
    8.6990    0.1436   13.2312 C   0  0  0  0  0  0  0  0  0  0  0  0
    7.4377   -0.6556   12.7682 C   0  0  0  0  0  0  0  0  0  0  0  0
    2.6470   -0.4408   11.6095 C   0  0  0  0  0  0  0  0  0  0  0  0
    1.0542   -1.0080   11.1760 C   0  0  0  0  0  0  0  0  0  0  0  0
   -3.7989   -0.8472    7.9248 C   0  0  0  0  0  0  0  0  0  0  0  0
   -4.7442    0.0198    8.6619 C   0  0  0  0  0  0  0  0  0  0  0  0
   -6.1937   -0.3221    8.3170 C   0  0  0  0  0  0  0  0  0  0  0  0
   -6.0787   -1.3725    7.2559 C   0  0  0  0  0  0  0  0  0  0  0  0
   -4.7871   -1.9262    7.5870 N   0  0  0  0  0  0  0  0  0  0  0  0
   -1.7600    0.4463    9.2371 H   0  0  0  0  0  0  0  0  0  0  0  0
    1.8861    1.0585    8.7278 H   0  0  0  0  0  0  0  0  0  0  0  0
    4.0335    1.5998    9.6577 H   0  0  0  0  0  0  0  0  0  0  0  0
    6.9126   -2.3386   11.6207 H   0  0  0  0  0  0  0  0  0  0  0  0
    7.9068   -2.7556   15.4972 H   0  0  0  0  0  0  0  0  0  0  0  0
    9.9760   -1.3371   16.0065 H   0  0  0  0  0  0  0  0  0  0  0  0
   10.3985    0.5749   14.5372 H   0  0  0  0  0  0  0  0  0  0  0  0
    9.1378    0.9732   12.7029 H   0  0  0  0  0  0  0  0  0  0  0  0
    2.3109    0.2566   12.4833 H   0  0  0  0  0  0  0  0  0  0  0  0
    0.4720   -0.6826   12.0878 H   0  0  0  0  0  0  0  0  0  0  0  0
   -3.4992   -0.4911    6.9597 H   0  0  0  0  0  0  0  0  0  0  0  0
   -4.6113    1.0443    8.3529 H   0  0  0  0  0  0  0  0  0  0  0  0
   -4.5395   -0.1209    9.7107 H   0  0  0  0  0  0  0  0  0  0  0  0
   -6.7230   -0.6910    9.1988 H   0  0  0  0  0  0  0  0  0  0  0  0
   -6.7422    0.5564    7.9600 H   0  0  0  0  0  0  0  0  0  0  0  0
   -6.1146   -0.9156    6.2649 H   0  0  0  0  0  0  0  0  0  0  0  0
   -6.8789   -2.1148    7.3178 H   0  0  0  0  0  0  0  0  0  0  0  0
   -4.4250   -2.6380    6.9628 H   0  0  0  0  0  0  0  0  0  0  0  0
  1  2  2  0
  2  3  1  0
  3  4  1  0
  4  5  2  0
  5  6  1  0
  6  7  2  0
  7  8  1  0
  8  9  1  0
  9 10  2  0
 10 11  1  0
 11 12  2  0
 12 13  1  0
 13 14  2  0
 14 15  1  0
 15 16  2  0
  7 17  1  0
 17 18  2  0
  2 19  1  0
 19 20  1  0
 20 21  1  0
 21 22  1  0
 22 23  1  0
 18  4  1  0
 23 19  1  0
 16  8  1  0
 16 11  1  0
  3 24  1  0
  5 25  1  0
  6 26  1  0
  9 27  1  0
 12 28  1  0
 13 29  1  0
 14 30  1  0
 15 31  1  0
 17 32  1  0
 18 33  1  0
 19 34  1  0
 20 35  1  0
 20 36  1  0
 21 37  1  0
 21 38  1  0
 22 39  1  0
 22 40  1  0
 23 41  1  0
M  END
>  <Energy>  (1193) 
912.81311657998344

>  <compound_id>  (1193) 
9212

>  <target_id>  (1193) 
1

>  <reference_id>  (1193) 
103

>  <inspiration_ids>  (1193) 
[103, 95]

>  <energy_score>  (1193) 
788.8045392143572

>  <distance_score>  (1193) 
7.273789490750318

>  <path>  (1193) 
/opt/xchem-fragalysis-2/maxwin/BulkDock/SCRATCH/511014/C9212-P103/C9212-P103.minimised.mol

>  <scratch_subdir>  (1193) 
/opt/xchem-fragalysis-2/maxwin/BulkDock/SCRATCH/511014/C9212-P103

>  <fragmenstein_runtime>  (1193) 
10.061144351959229

>  <fragmenstein_outcome>  (1193) 
too moved

>  <fragmenstein_mode>  (1193) 
expansion

>  <fragmenstein_error>  (1193) 


$$$$
C9212-P95
     RDKit          3D

 41 44  0  0  0  0  0  0  0  0999 V2000
   -1.5449   -1.6041    6.8109 O   0  0  0  0  0  0  0  0  0  0  0  0
   -2.1203   -1.3992    7.8179 C   0  0  0  0  0  0  0  0  0  0  0  0
   -1.6314   -1.2036    9.1254 N   0  0  0  0  0  0  0  0  0  0  0  0
    0.1568   -1.1817    9.8246 C   0  0  0  0  0  0  0  0  0  0  0  0
    1.4334   -1.4558    9.2620 C   0  0  0  0  0  0  0  0  0  0  0  0
    2.9910   -2.3119    9.9227 C   0  0  0  0  0  0  0  0  0  0  0  0
    3.4684   -2.2228   11.1749 C   0  0  0  0  0  0  0  0  0  0  0  0
    5.2356   -2.4170   11.9279 N   0  0  0  0  0  0  0  0  0  0  0  0
    6.0744   -1.0167   11.8631 C   0  0  0  0  0  0  0  0  0  0  0  0
    7.3151   -0.9371   11.7427 N   0  0  0  0  0  0  0  0  0  0  0  0
    7.3651   -1.1129   13.0205 C   0  0  0  0  0  0  0  0  0  0  0  0
    8.3142   -0.5505   13.9798 C   0  0  0  0  0  0  0  0  0  0  0  0
    8.6389   -1.3614   14.9847 C   0  0  0  0  0  0  0  0  0  0  0  0
    7.7947   -2.4175   15.0369 C   0  0  0  0  0  0  0  0  0  0  0  0
    6.4455   -2.4848   14.5456 C   0  0  0  0  0  0  0  0  0  0  0  0
    6.2725   -1.9870   13.3223 C   0  0  0  0  0  0  0  0  0  0  0  0
    1.8318   -1.4562   11.4392 C   0  0  0  0  0  0  0  0  0  0  0  0
    0.3530   -1.3507   11.1274 C   0  0  0  0  0  0  0  0  0  0  0  0
   -3.6451   -1.3395    7.5517 C   0  0  0  0  0  0  0  0  0  0  0  0
   -4.2848   -2.5449    6.8784 C   0  0  0  0  0  0  0  0  0  0  0  0
   -5.7738   -2.2184    6.9326 C   0  0  0  0  0  0  0  0  0  0  0  0
   -5.8922   -1.0560    7.9199 C   0  0  0  0  0  0  0  0  0  0  0  0
   -4.5804   -0.9537    8.5910 N   0  0  0  0  0  0  0  0  0  0  0  0
   -2.3986   -0.9725    9.7269 H   0  0  0  0  0  0  0  0  0  0  0  0
    1.3235   -1.9740    8.2234 H   0  0  0  0  0  0  0  0  0  0  0  0
    3.3519   -3.0016    9.1296 H   0  0  0  0  0  0  0  0  0  0  0  0
    5.4637   -0.2388   12.1706 H   0  0  0  0  0  0  0  0  0  0  0  0
    8.9853    0.2513   13.6815 H   0  0  0  0  0  0  0  0  0  0  0  0
    9.5923   -1.2971   15.4861 H   0  0  0  0  0  0  0  0  0  0  0  0
    8.2052   -3.3259   15.4317 H   0  0  0  0  0  0  0  0  0  0  0  0
    5.7023   -3.1393   14.9308 H   0  0  0  0  0  0  0  0  0  0  0  0
    1.6622   -0.7059   12.3167 H   0  0  0  0  0  0  0  0  0  0  0  0
   -0.3831   -0.9892   11.8465 H   0  0  0  0  0  0  0  0  0  0  0  0
   -3.7304   -0.6015    6.7656 H   0  0  0  0  0  0  0  0  0  0  0  0
   -4.0307   -3.4756    7.3862 H   0  0  0  0  0  0  0  0  0  0  0  0
   -3.9662   -2.6572    5.8369 H   0  0  0  0  0  0  0  0  0  0  0  0
   -6.1343   -1.9076    5.9452 H   0  0  0  0  0  0  0  0  0  0  0  0
   -6.3577   -3.0936    7.2275 H   0  0  0  0  0  0  0  0  0  0  0  0
   -6.1007   -0.1261    7.3762 H   0  0  0  0  0  0  0  0  0  0  0  0
   -6.7031   -1.2037    8.6367 H   0  0  0  0  0  0  0  0  0  0  0  0
   -4.4191    0.0009    8.8856 H   0  0  0  0  0  0  0  0  0  0  0  0
  1  2  2  0
  2  3  1  0
  3  4  1  0
  4  5  2  0
  5  6  1  0
  6  7  2  0
  7  8  1  0
  8  9  1  0
  9 10  2  0
 10 11  1  0
 11 12  2  0
 12 13  1  0
 13 14  2  0
 14 15  1  0
 15 16  2  0
  7 17  1  0
 17 18  2  0
  2 19  1  0
 19 20  1  0
 20 21  1  0
 21 22  1  0
 22 23  1  0
 18  4  1  0
 23 19  1  0
 16  8  1  0
 16 11  1  0
  3 24  1  0
  5 25  1  0
  6 26  1  0
  9 27  1  0
 12 28  1  0
 13 29  1  0
 14 30  1  0
 15 31  1  0
 17 32  1  0
 18 33  1  0
 19 34  1  0
 20 35  1  0
 20 36  1  0
 21 37  1  0
 21 38  1  0
 22 39  1  0
 22 40  1  0
 23 41  1  0
M  END
>  <Energy>  (1194) 
764.88542082853166

>  <compound_id>  (1194) 
9212

>  <target_id>  (1194) 
1

>  <reference_id>  (1194) 
95

>  <inspiration_ids>  (1194) 
[103, 95]

>  <energy_score>  (1194) 
640.8768434629208

>  <distance_score>  (1194) 
7.423210672599385

>  <path>  (1194) 
/opt/xchem-fragalysis-2/maxwin/BulkDock/SCRATCH/511014/C9212-P95/C9212-P95.minimised.mol

>  <scratch_subdir>  (1194) 
/opt/xchem-fragalysis-2/maxwin/BulkDock/SCRATCH/511014/C9212-P95

>  <fragmenstein_runtime>  (1194) 
9.345590114593506

>  <fragmenstein_outcome>  (1194) 
too moved

>  <fragmenstein_mode>  (1194) 
expansion

>  <fragmenstein_error>  (1194) 


$$$$
C9200-P103
     RDKit          3D

 48 51  0  0  0  0  0  0  0  0999 V2000
   12.2163    0.9572   13.7646 C   0  0  0  0  0  0  0  0  0  0  0  0
   12.2760    1.1409   15.1453 C   0  0  0  0  0  0  0  0  0  0  0  0
   11.5050    2.1252   15.7746 C   0  0  0  0  0  0  0  0  0  0  0  0
   10.6548    2.8840   14.9665 C   0  0  0  0  0  0  0  0  0  0  0  0
    9.7381    3.8666   15.2455 N   0  0  0  0  0  0  0  0  0  0  0  0
    9.1000    4.2529   14.0778 C   0  0  0  0  0  0  0  0  0  0  0  0
    8.0244    5.1278   14.1237 N   0  0  0  0  0  0  0  0  0  0  0  0
    8.2037    6.2810   15.0340 C   0  0  0  0  0  0  0  0  0  0  0  0
    7.2426    7.4268   14.7528 C   0  0  0  0  0  0  0  0  0  0  0  0
    7.3093    7.8966   13.3011 C   0  0  0  0  0  0  0  0  0  0  0  0
    7.6083    6.7655   12.3148 C   0  0  0  0  0  0  0  0  0  0  0  0
    7.2250    5.3844   12.8627 C   0  0  0  0  0  0  0  0  0  0  0  0
    5.6477    5.2278   13.0026 C   0  0  0  0  0  0  0  0  0  0  0  0
    4.9540    4.8141   11.6578 C   0  0  0  0  0  0  0  0  0  0  0  0
    3.4993    4.2380   11.7156 C   0  0  0  0  0  0  0  0  0  0  0  0
    2.4294    5.2267   12.1917 C   0  0  0  0  0  0  0  0  0  0  0  0
    1.2617    5.0807   11.2244 C   0  0  0  0  0  0  0  0  0  0  0  0
    1.9458    4.6693    9.9404 C   0  0  0  0  0  0  0  0  0  0  0  0
    3.0144    3.7844   10.3933 N   0  0  0  0  0  0  0  0  0  0  0  0
    9.6255    3.5900   13.0583 N   0  0  0  0  0  0  0  0  0  0  0  0
   10.5802    2.7351   13.5929 C   0  0  0  0  0  0  0  0  0  0  0  0
   11.3835    1.7618   12.9723 C   0  0  0  0  0  0  0  0  0  0  0  0
   12.8300    0.1925   13.2937 H   0  0  0  0  0  0  0  0  0  0  0  0
   12.9452    0.5229   15.7403 H   0  0  0  0  0  0  0  0  0  0  0  0
   11.5713    2.2948   16.8425 H   0  0  0  0  0  0  0  0  0  0  0  0
    9.4888    4.1816   16.1685 H   0  0  0  0  0  0  0  0  0  0  0  0
    9.2288    6.6673   14.9504 H   0  0  0  0  0  0  0  0  0  0  0  0
    8.0582    5.9506   16.0696 H   0  0  0  0  0  0  0  0  0  0  0  0
    7.4626    8.2700   15.4182 H   0  0  0  0  0  0  0  0  0  0  0  0
    6.2220    7.1141   15.0003 H   0  0  0  0  0  0  0  0  0  0  0  0
    8.0816    8.6683   13.1955 H   0  0  0  0  0  0  0  0  0  0  0  0
    6.3603    8.3806   13.0405 H   0  0  0  0  0  0  0  0  0  0  0  0
    7.1031    6.9670   11.3646 H   0  0  0  0  0  0  0  0  0  0  0  0
    8.6844    6.7706   12.0956 H   0  0  0  0  0  0  0  0  0  0  0  0
    7.5270    4.6359   12.1324 H   0  0  0  0  0  0  0  0  0  0  0  0
    5.1901    6.1672   13.3278 H   0  0  0  0  0  0  0  0  0  0  0  0
    5.4015    4.5064   13.7832 H   0  0  0  0  0  0  0  0  0  0  0  0
    4.9540    5.6903   10.9988 H   0  0  0  0  0  0  0  0  0  0  0  0
    5.5802    4.0565   11.1729 H   0  0  0  0  0  0  0  0  0  0  0  0
    3.5079    3.3635   12.3764 H   0  0  0  0  0  0  0  0  0  0  0  0
    2.1187    5.0281   13.2226 H   0  0  0  0  0  0  0  0  0  0  0  0
    2.8065    6.2556   12.1484 H   0  0  0  0  0  0  0  0  0  0  0  0
    0.5725    4.3158   11.5899 H   0  0  0  0  0  0  0  0  0  0  0  0
    0.7008    6.0139   11.1167 H   0  0  0  0  0  0  0  0  0  0  0  0
    2.3760    5.5438    9.4385 H   0  0  0  0  0  0  0  0  0  0  0  0
    1.2666    4.1722    9.2452 H   0  0  0  0  0  0  0  0  0  0  0  0
    3.7610    3.6768    9.7099 H   0  0  0  0  0  0  0  0  0  0  0  0
   11.3484    1.6271   11.8973 H   0  0  0  0  0  0  0  0  0  0  0  0
  1  2  2  0
  2  3  1  0
  3  4  2  0
  4  5  1  0
  5  6  1  0
  6  7  1  0
  7  8  1  0
  8  9  1  0
  9 10  1  0
 10 11  1  0
 11 12  1  0
 12 13  1  0
 13 14  1  0
 14 15  1  0
 15 16  1  0
 16 17  1  0
 17 18  1  0
 18 19  1  0
  6 20  2  0
 20 21  1  0
 21 22  2  0
 22  1  1  0
 21  4  1  0
 12  7  1  0
 19 15  1  0
  1 23  1  0
  2 24  1  0
  3 25  1  0
  5 26  1  0
  8 27  1  0
  8 28  1  0
  9 29  1  0
  9 30  1  0
 10 31  1  0
 10 32  1  0
 11 33  1  0
 11 34  1  0
 12 35  1  0
 13 36  1  0
 13 37  1  0
 14 38  1  0
 14 39  1  0
 15 40  1  0
 16 41  1  0
 16 42  1  0
 17 43  1  0
 17 44  1  0
 18 45  1  0
 18 46  1  0
 19 47  1  0
 22 48  1  0
M  END
>  <Energy>  (1195) 
7.4199916544033586

>  <compound_id>  (1195) 
9200

>  <target_id>  (1195) 
1

>  <reference_id>  (1195) 
103

>  <inspiration_ids>  (1195) 
[103, 95]

>  <energy_score>  (1195) 
-35.73335845857221

>  <distance_score>  (1195) 
9.482833150703465

>  <path>  (1195) 
/opt/xchem-fragalysis-2/maxwin/BulkDock/SCRATCH/511014/C9200-P103/C9200-P103.minimised.mol

>  <scratch_subdir>  (1195) 
/opt/xchem-fragalysis-2/maxwin/BulkDock/SCRATCH/511014/C9200-P103

>  <fragmenstein_runtime>  (1195) 
15.855246543884277

>  <fragmenstein_outcome>  (1195) 
too moved

>  <fragmenstein_mode>  (1195) 
expansion

>  <fragmenstein_error>  (1195) 


$$$$
C9200-P95
     RDKit          3D

 48 51  0  0  0  0  0  0  0  0999 V2000
   12.1321   -2.7064   15.3476 C   0  0  0  0  0  0  0  0  0  0  0  0
   12.6801   -1.4376   15.2455 C   0  0  0  0  0  0  0  0  0  0  0  0
   11.8854   -0.3611   14.8542 C   0  0  0  0  0  0  0  0  0  0  0  0
   10.5252   -0.6205   14.6542 C   0  0  0  0  0  0  0  0  0  0  0  0
    9.5675    0.0805   14.0099 N   0  0  0  0  0  0  0  0  0  0  0  0
    8.3211   -0.6091   13.9115 C   0  0  0  0  0  0  0  0  0  0  0  0
    7.3877    0.2381   13.1822 N   0  0  0  0  0  0  0  0  0  0  0  0
    7.6828    1.5026   14.8052 C   0  0  0  0  0  0  0  0  0  0  0  0
    6.5475    3.1763   14.9489 C   0  0  0  0  0  0  0  0  0  0  0  0
    5.0549    3.8417   13.7676 C   0  0  0  0  0  0  0  0  0  0  0  0
    4.6378    2.2746   12.4738 C   0  0  0  0  0  0  0  0  0  0  0  0
    5.3769    0.2786   12.5065 C   0  0  0  0  0  0  0  0  0  0  0  0
    3.6375    0.2158   11.1134 C   0  0  0  0  0  0  0  0  0  0  0  0
    1.9020   -1.0523   10.7079 C   0  0  0  0  0  0  0  0  0  0  0  0
   -0.0909   -1.0830    9.7842 C   0  0  0  0  0  0  0  0  0  0  0  0
   -1.9985   -0.5055    8.9476 C   0  0  0  0  0  0  0  0  0  0  0  0
   -3.3999   -1.1109    8.5127 C   0  0  0  0  0  0  0  0  0  0  0  0
   -2.7953   -2.3322    8.2148 C   0  0  0  0  0  0  0  0  0  0  0  0
   -1.4369   -1.7868    8.4730 N   0  0  0  0  0  0  0  0  0  0  0  0
    8.4692   -1.7439   14.5763 N   0  0  0  0  0  0  0  0  0  0  0  0
    9.8879   -1.8298   14.8352 C   0  0  0  0  0  0  0  0  0  0  0  0
   10.7645   -2.8983   15.1046 C   0  0  0  0  0  0  0  0  0  0  0  0
   12.7600   -3.5650   15.5782 H   0  0  0  0  0  0  0  0  0  0  0  0
   13.7460   -1.2954   15.4078 H   0  0  0  0  0  0  0  0  0  0  0  0
   12.3203    0.6123   14.6564 H   0  0  0  0  0  0  0  0  0  0  0  0
    9.7492    0.8629   13.4119 H   0  0  0  0  0  0  0  0  0  0  0  0
    8.7128    1.9030   14.8087 H   0  0  0  0  0  0  0  0  0  0  0  0
    7.5154    0.8837   15.7039 H   0  0  0  0  0  0  0  0  0  0  0  0
    7.2916    3.9871   14.8841 H   0  0  0  0  0  0  0  0  0  0  0  0
    6.1555    3.2127   15.9698 H   0  0  0  0  0  0  0  0  0  0  0  0
    4.2056    4.2623   14.3399 H   0  0  0  0  0  0  0  0  0  0  0  0
    5.4440    4.6833   13.1527 H   0  0  0  0  0  0  0  0  0  0  0  0
    3.5365    2.2311   12.5642 H   0  0  0  0  0  0  0  0  0  0  0  0
    4.7089    2.7763   11.4839 H   0  0  0  0  0  0  0  0  0  0  0  0
    5.7903   -0.5306   11.8564 H   0  0  0  0  0  0  0  0  0  0  0  0
    2.9227    0.9191   11.5977 H   0  0  0  0  0  0  0  0  0  0  0  0
    3.8946    0.9108   10.2816 H   0  0  0  0  0  0  0  0  0  0  0  0
    1.4673   -1.0981   11.7283 H   0  0  0  0  0  0  0  0  0  0  0  0
    2.4579   -1.9643   10.6043 H   0  0  0  0  0  0  0  0  0  0  0  0
    0.5269   -1.7934    9.2154 H   0  0  0  0  0  0  0  0  0  0  0  0
   -2.6088    0.1834    9.5513 H   0  0  0  0  0  0  0  0  0  0  0  0
   -2.0163    0.2178    8.1023 H   0  0  0  0  0  0  0  0  0  0  0  0
   -4.2163   -1.0998    9.2298 H   0  0  0  0  0  0  0  0  0  0  0  0
   -3.8005   -0.6244    7.6178 H   0  0  0  0  0  0  0  0  0  0  0  0
   -3.0837   -3.2271    8.7164 H   0  0  0  0  0  0  0  0  0  0  0  0
   -2.9624   -2.5584    7.1578 H   0  0  0  0  0  0  0  0  0  0  0  0
   -1.1991   -1.2923    7.5630 H   0  0  0  0  0  0  0  0  0  0  0  0
   10.3899   -3.9000   15.0673 H   0  0  0  0  0  0  0  0  0  0  0  0
  1  2  2  0
  2  3  1  0
  3  4  2  0
  4  5  1  0
  5  6  1  0
  6  7  1  0
  7  8  1  0
  8  9  1  0
  9 10  1  0
 10 11  1  0
 11 12  1  0
 12 13  1  0
 13 14  1  0
 14 15  1  0
 15 16  1  0
 16 17  1  0
 17 18  1  0
 18 19  1  0
  6 20  2  0
 20 21  1  0
 21 22  2  0
 22  1  1  0
 21  4  1  0
 12  7  1  0
 19 15  1  0
  1 23  1  0
  2 24  1  0
  3 25  1  0
  5 26  1  0
  8 27  1  0
  8 28  1  0
  9 29  1  0
  9 30  1  0
 10 31  1  0
 10 32  1  0
 11 33  1  0
 11 34  1  0
 12 35  1  0
 13 36  1  0
 13 37  1  0
 14 38  1  0
 14 39  1  0
 15 40  1  0
 16 41  1  0
 16 42  1  0
 17 43  1  0
 17 44  1  0
 18 45  1  0
 18 46  1  0
 19 47  1  0
 22 48  1  0
M  END
>  <Energy>  (1196) 
1584.871697471775

>  <compound_id>  (1196) 
9200

>  <target_id>  (1196) 
1

>  <reference_id>  (1196) 
95

>  <inspiration_ids>  (1196) 
[103, 95]

>  <energy_score>  (1196) 
1541.718347358807

>  <distance_score>  (1196) 
5.582840302427603

>  <path>  (1196) 
/opt/xchem-fragalysis-2/maxwin/BulkDock/SCRATCH/511014/C9200-P95/C9200-P95.minimised.mol

>  <scratch_subdir>  (1196) 
/opt/xchem-fragalysis-2/maxwin/BulkDock/SCRATCH/511014/C9200-P95

>  <fragmenstein_runtime>  (1196) 
9.111479043960571

>  <fragmenstein_outcome>  (1196) 
too moved

>  <fragmenstein_mode>  (1196) 
expansion

>  <fragmenstein_error>  (1196) 


$$$$
C9232-P103
     RDKit          3D

 40 42  0  0  0  0  0  0  0  0999 V2000
    8.3690   -3.1365   14.7876 C   0  0  0  0  0  0  0  0  0  0  0  0
    7.0951   -2.4878   14.2503 C   0  0  0  0  0  0  0  0  0  0  0  0
    6.4848   -2.1800   12.8929 C   0  0  0  0  0  0  0  0  0  0  0  0
    6.0268   -1.0937   12.2003 C   0  0  0  0  0  0  0  0  0  0  0  0
    4.2519   -0.8557   11.4238 N   0  0  0  0  0  0  0  0  0  0  0  0
    2.7297   -2.1362   11.1380 C   0  0  0  0  0  0  0  0  0  0  0  0
    2.8974   -3.3277   11.3965 O   0  0  0  0  0  0  0  0  0  0  0  0
    0.8541   -1.3004   10.2567 C   0  0  0  0  0  0  0  0  0  0  0  0
   -1.2053   -0.8560    9.4545 C   0  0  0  0  0  0  0  0  0  0  0  0
   -2.9958   -1.0719    8.8325 C   0  0  0  0  0  0  0  0  0  0  0  0
   -4.0800   -0.0166    9.3865 C   0  0  0  0  0  0  0  0  0  0  0  0
   -5.3739   -0.2033    8.6314 C   0  0  0  0  0  0  0  0  0  0  0  0
   -4.9538   -1.0515    7.4827 C   0  0  0  0  0  0  0  0  0  0  0  0
   -3.4694   -1.0025    7.4500 N   0  0  0  0  0  0  0  0  0  0  0  0
    7.5175   -0.5436   12.9239 C   0  0  0  0  0  0  0  0  0  0  0  0
    8.7258    0.3168   12.9846 N   0  0  0  0  0  0  0  0  0  0  0  0
    9.6017    0.3062   14.0366 C   0  0  0  0  0  0  0  0  0  0  0  0
    8.9967   -0.2433   15.0165 N   0  0  0  0  0  0  0  0  0  0  0  0
    7.9295   -0.8419   14.3492 C   0  0  0  0  0  0  0  0  0  0  0  0
    6.9980   -1.4889   15.0762 C   0  0  0  0  0  0  0  0  0  0  0  0
    8.8743   -4.0791   14.7865 H   0  0  0  0  0  0  0  0  0  0  0  0
    9.2429   -2.4999   14.9687 H   0  0  0  0  0  0  0  0  0  0  0  0
    7.8411   -3.4028   15.6825 H   0  0  0  0  0  0  0  0  0  0  0  0
    7.2600   -2.3681   12.0898 H   0  0  0  0  0  0  0  0  0  0  0  0
    3.9766    0.0743   11.0826 H   0  0  0  0  0  0  0  0  0  0  0  0
    0.5742   -0.8811   11.2147 H   0  0  0  0  0  0  0  0  0  0  0  0
    1.3997   -0.5360    9.7158 H   0  0  0  0  0  0  0  0  0  0  0  0
   -1.5414    0.1328    9.0956 H   0  0  0  0  0  0  0  0  0  0  0  0
   -1.3051   -1.5498    8.5282 H   0  0  0  0  0  0  0  0  0  0  0  0
   -3.2113   -2.1170    8.9913 H   0  0  0  0  0  0  0  0  0  0  0  0
   -3.7784    0.9966    9.1595 H   0  0  0  0  0  0  0  0  0  0  0  0
   -4.2894    0.0194   10.4570 H   0  0  0  0  0  0  0  0  0  0  0  0
   -5.7524    0.7705    8.2970 H   0  0  0  0  0  0  0  0  0  0  0  0
   -6.1765   -0.6702    9.2011 H   0  0  0  0  0  0  0  0  0  0  0  0
   -5.4489   -0.6343    6.6029 H   0  0  0  0  0  0  0  0  0  0  0  0
   -5.2893   -2.0873    7.5708 H   0  0  0  0  0  0  0  0  0  0  0  0
   -3.1805   -0.1573    6.9678 H   0  0  0  0  0  0  0  0  0  0  0  0
    8.9271    1.0278   12.3235 H   0  0  0  0  0  0  0  0  0  0  0  0
   10.5533    0.8185   14.0335 H   0  0  0  0  0  0  0  0  0  0  0  0
    7.2100   -1.4188   16.1140 H   0  0  0  0  0  0  0  0  0  0  0  0
  1  2  1  0
  2  3  2  0
  3  4  1  0
  4  5  1  0
  5  6  1  0
  6  7  2  0
  6  8  1  0
  8  9  1  0
  9 10  1  0
 10 11  1  0
 11 12  1  0
 12 13  1  0
 13 14  1  0
  4 15  2  0
 15 16  1  0
 16 17  1  0
 17 18  2  0
 18 19  1  0
 19 20  2  0
 20  2  1  0
 14 10  1  0
 19 15  1  0
  1 21  1  0
  1 22  1  0
  1 23  1  0
  3 24  1  0
  5 25  1  0
  8 26  1  0
  8 27  1  0
  9 28  1  0
  9 29  1  0
 10 30  1  0
 11 31  1  0
 11 32  1  0
 12 33  1  0
 12 34  1  0
 13 35  1  0
 13 36  1  0
 14 37  1  0
 16 38  1  0
 17 39  1  0
 20 40  1  0
M  END
>  <Energy>  (1197) 
1070.1411855119882

>  <compound_id>  (1197) 
9232

>  <target_id>  (1197) 
1

>  <reference_id>  (1197) 
103

>  <inspiration_ids>  (1197) 
[103, 95]

>  <energy_score>  (1197) 
1032.0959948272018

>  <distance_score>  (1197) 
6.972645987559177

>  <path>  (1197) 
/opt/xchem-fragalysis-2/maxwin/BulkDock/SCRATCH/511014/C9232-P103/C9232-P103.minimised.mol

>  <scratch_subdir>  (1197) 
/opt/xchem-fragalysis-2/maxwin/BulkDock/SCRATCH/511014/C9232-P103

>  <fragmenstein_runtime>  (1197) 
9.701035737991333

>  <fragmenstein_outcome>  (1197) 
too moved

>  <fragmenstein_mode>  (1197) 
expansion

>  <fragmenstein_error>  (1197) 


$$$$
C9232-P95
     RDKit          3D

 40 42  0  0  0  0  0  0  0  0999 V2000
    6.9223   -0.2278   16.4775 C   0  0  0  0  0  0  0  0  0  0  0  0
    6.8362   -1.4314   15.4208 C   0  0  0  0  0  0  0  0  0  0  0  0
    5.2450   -2.2906   15.0889 C   0  0  0  0  0  0  0  0  0  0  0  0
    4.4822   -2.7582   14.0250 C   0  0  0  0  0  0  0  0  0  0  0  0
    2.5831   -2.6619   13.4057 N   0  0  0  0  0  0  0  0  0  0  0  0
    1.4701   -1.1023   12.8439 C   0  0  0  0  0  0  0  0  0  0  0  0
    1.9177    0.0587   12.7264 O   0  0  0  0  0  0  0  0  0  0  0  0
   -0.1480   -1.1110   12.3711 C   0  0  0  0  0  0  0  0  0  0  0  0
   -1.7292   -0.1589   12.1083 C   0  0  0  0  0  0  0  0  0  0  0  0
   -3.3927    0.3413   12.5185 C   0  0  0  0  0  0  0  0  0  0  0  0
   -3.6971    1.5766   13.3766 C   0  0  0  0  0  0  0  0  0  0  0  0
   -5.1675    1.9106   13.0699 C   0  0  0  0  0  0  0  0  0  0  0  0
   -5.5522    1.0500   11.8819 C   0  0  0  0  0  0  0  0  0  0  0  0
   -4.2634    0.6533   11.3662 N   0  0  0  0  0  0  0  0  0  0  0  0
    5.9945   -2.1869   13.4517 C   0  0  0  0  0  0  0  0  0  0  0  0
    6.1013   -1.8303   12.1397 N   0  0  0  0  0  0  0  0  0  0  0  0
    6.9859   -0.9106   11.8636 C   0  0  0  0  0  0  0  0  0  0  0  0
    7.5577   -0.5767   12.9609 N   0  0  0  0  0  0  0  0  0  0  0  0
    7.2841   -1.6656   13.7511 C   0  0  0  0  0  0  0  0  0  0  0  0
    7.9957   -1.7627   14.8726 C   0  0  0  0  0  0  0  0  0  0  0  0
    7.9544   -0.0906   16.8264 H   0  0  0  0  0  0  0  0  0  0  0  0
    6.2361   -0.3796   17.3182 H   0  0  0  0  0  0  0  0  0  0  0  0
    6.7087    0.7504   16.0627 H   0  0  0  0  0  0  0  0  0  0  0  0
    4.5990   -2.2059   16.0092 H   0  0  0  0  0  0  0  0  0  0  0  0
    1.9944   -3.4806   13.5139 H   0  0  0  0  0  0  0  0  0  0  0  0
    0.0460   -1.2323   11.3089 H   0  0  0  0  0  0  0  0  0  0  0  0
    0.0351   -0.2087   12.9380 H   0  0  0  0  0  0  0  0  0  0  0  0
   -1.3895    0.7450   12.5513 H   0  0  0  0  0  0  0  0  0  0  0  0
   -2.0468   -1.1015   12.5202 H   0  0  0  0  0  0  0  0  0  0  0  0
   -3.8761   -0.4642   13.0599 H   0  0  0  0  0  0  0  0  0  0  0  0
   -3.0732    2.4427   13.1418 H   0  0  0  0  0  0  0  0  0  0  0  0
   -3.5832    1.3754   14.4468 H   0  0  0  0  0  0  0  0  0  0  0  0
   -5.2641    2.9774   12.8377 H   0  0  0  0  0  0  0  0  0  0  0  0
   -5.8082    1.6961   13.9321 H   0  0  0  0  0  0  0  0  0  0  0  0
   -6.1370    1.6051   11.1434 H   0  0  0  0  0  0  0  0  0  0  0  0
   -6.1379    0.1864   12.2095 H   0  0  0  0  0  0  0  0  0  0  0  0
   -4.2718   -0.1421   10.7297 H   0  0  0  0  0  0  0  0  0  0  0  0
    5.6108   -2.5072   11.5883 H   0  0  0  0  0  0  0  0  0  0  0  0
    7.1568   -0.5442   10.8721 H   0  0  0  0  0  0  0  0  0  0  0  0
    8.9391   -1.2649   15.0376 H   0  0  0  0  0  0  0  0  0  0  0  0
  1  2  1  0
  2  3  2  0
  3  4  1  0
  4  5  1  0
  5  6  1  0
  6  7  2  0
  6  8  1  0
  8  9  1  0
  9 10  1  0
 10 11  1  0
 11 12  1  0
 12 13  1  0
 13 14  1  0
  4 15  2  0
 15 16  1  0
 16 17  1  0
 17 18  2  0
 18 19  1  0
 19 20  2  0
 20  2  1  0
 14 10  1  0
 19 15  1  0
  1 21  1  0
  1 22  1  0
  1 23  1  0
  3 24  1  0
  5 25  1  0
  8 26  1  0
  8 27  1  0
  9 28  1  0
  9 29  1  0
 10 30  1  0
 11 31  1  0
 11 32  1  0
 12 33  1  0
 12 34  1  0
 13 35  1  0
 13 36  1  0
 14 37  1  0
 16 38  1  0
 17 39  1  0
 20 40  1  0
M  END
>  <Energy>  (1198) 
723.38804767539

>  <compound_id>  (1198) 
9232

>  <target_id>  (1198) 
1

>  <reference_id>  (1198) 
95

>  <inspiration_ids>  (1198) 
[103, 95]

>  <energy_score>  (1198) 
685.3428569906102

>  <distance_score>  (1198) 
8.632678704028113

>  <path>  (1198) 
/opt/xchem-fragalysis-2/maxwin/BulkDock/SCRATCH/511014/C9232-P95/C9232-P95.minimised.mol

>  <scratch_subdir>  (1198) 
/opt/xchem-fragalysis-2/maxwin/BulkDock/SCRATCH/511014/C9232-P95

>  <fragmenstein_runtime>  (1198) 
14.90776515007019

>  <fragmenstein_outcome>  (1198) 
too moved

>  <fragmenstein_mode>  (1198) 
expansion

>  <fragmenstein_error>  (1198) 


$$$$
C17722-P63
     RDKit          3D

 43 44  0  0  0  0  0  0  0  0999 V2000
    0.0349   -8.8379    9.1191 C   0  0  0  0  0  0  0  0  0  0  0  0
    1.0987   -9.4405   10.5086 C   0  0  0  0  0  0  0  0  0  0  0  0
    1.4471   -7.7904   11.0896 C   0  0  0  0  0  0  0  0  0  0  0  0
    1.8553  -10.8914   11.1030 C   0  0  0  0  0  0  0  0  0  0  0  0
    1.9043  -12.5600   10.7724 C   0  0  0  0  0  0  0  0  0  0  0  0
    0.6081  -13.7941   11.5774 C   0  0  0  0  0  0  0  0  0  0  0  0
   -0.0914  -13.2583   12.4113 O   0  0  0  0  0  0  0  0  0  0  0  0
    0.6510  -15.3163   11.0967 N   0  0  0  0  0  0  0  0  0  0  0  0
   -0.2330  -16.5071   11.4682 C   0  0  0  0  0  0  0  0  0  0  0  0
   -1.6493  -16.6398   10.8346 C   0  0  0  0  0  0  0  0  0  0  0  0
   -2.4241  -17.9154   11.2415 C   0  0  0  0  0  0  0  0  0  0  0  0
   -2.3259  -18.2728   12.6513 N   0  0  0  0  0  0  0  0  0  0  0  0
   -0.9292  -18.4295   13.0449 C   0  0  0  0  0  0  0  0  0  0  0  0
   -0.0675  -17.1600   12.8566 C   0  0  0  0  0  0  0  0  0  0  0  0
    2.6451  -12.7788    9.4220 N   0  0  0  0  0  0  0  0  0  0  0  0
    3.9496  -12.7108    9.4459 C   0  0  0  0  0  0  0  0  0  0  0  0
    4.1172  -11.3798    8.9585 C   0  0  0  0  0  0  0  0  0  0  0  0
    3.0220  -10.8066    8.6793 N   0  0  0  0  0  0  0  0  0  0  0  0
    2.4609  -11.8827    8.3746 C   0  0  0  0  0  0  0  0  0  0  0  0
   -0.9724   -9.2130    9.1733 H   0  0  0  0  0  0  0  0  0  0  0  0
   -0.0936   -7.7431    9.1312 H   0  0  0  0  0  0  0  0  0  0  0  0
    0.3317   -8.8890    8.0532 H   0  0  0  0  0  0  0  0  0  0  0  0
    0.5454   -9.6687   11.3778 H   0  0  0  0  0  0  0  0  0  0  0  0
    2.4610   -7.5216   11.4258 H   0  0  0  0  0  0  0  0  0  0  0  0
    0.7260   -7.4016   11.7801 H   0  0  0  0  0  0  0  0  0  0  0  0
    1.2772   -7.1966   10.2123 H   0  0  0  0  0  0  0  0  0  0  0  0
    1.3698  -11.0610   12.0557 H   0  0  0  0  0  0  0  0  0  0  0  0
    2.8936  -10.6057   11.2142 H   0  0  0  0  0  0  0  0  0  0  0  0
    2.8599  -12.7864   11.1696 H   0  0  0  0  0  0  0  0  0  0  0  0
    1.4098  -15.4429   10.4428 H   0  0  0  0  0  0  0  0  0  0  0  0
    0.3030  -17.2530   10.8547 H   0  0  0  0  0  0  0  0  0  0  0  0
   -1.5378  -16.6992    9.7473 H   0  0  0  0  0  0  0  0  0  0  0  0
   -2.2540  -15.7445   10.9910 H   0  0  0  0  0  0  0  0  0  0  0  0
   -3.4797  -17.7807   10.9793 H   0  0  0  0  0  0  0  0  0  0  0  0
   -2.0630  -18.7554   10.6338 H   0  0  0  0  0  0  0  0  0  0  0  0
   -2.8289  -19.1491   12.8103 H   0  0  0  0  0  0  0  0  0  0  0  0
   -0.4794  -19.2567   12.4811 H   0  0  0  0  0  0  0  0  0  0  0  0
   -0.8904  -18.7196   14.1011 H   0  0  0  0  0  0  0  0  0  0  0  0
   -0.2463  -16.4544   13.6679 H   0  0  0  0  0  0  0  0  0  0  0  0
    0.9846  -17.4494   12.9826 H   0  0  0  0  0  0  0  0  0  0  0  0
    4.5808  -13.5249    9.7761 H   0  0  0  0  0  0  0  0  0  0  0  0
    5.0375  -10.8413    8.7560 H   0  0  0  0  0  0  0  0  0  0  0  0
    1.7190  -11.9136    7.5676 H   0  0  0  0  0  0  0  0  0  0  0  0
  1  2  1  0
  2  3  1  0
  2  4  1  0
  4  5  1  0
  5  6  1  0
  6  7  2  0
  6  8  1  0
  8  9  1  0
  9 10  1  0
 10 11  1  0
 11 12  1  0
 12 13  1  0
 13 14  1  0
  5 15  1  0
 15 16  1  0
 16 17  2  0
 17 18  1  0
 18 19  2  0
 14  9  1  0
 19 15  1  0
  1 20  1  0
  1 21  1  0
  1 22  1  0
  2 23  1  0
  3 24  1  0
  3 25  1  0
  3 26  1  0
  4 27  1  0
  4 28  1  0
  5 29  1  0
  8 30  1  0
  9 31  1  0
 10 32  1  0
 10 33  1  0
 11 34  1  0
 11 35  1  0
 12 36  1  0
 13 37  1  0
 13 38  1  0
 14 39  1  0
 14 40  1  0
 16 41  1  0
 17 42  1  0
 19 43  1  0
M  END
>  <Energy>  (1199) 
319.69854951078162

>  <compound_id>  (1199) 
17722

>  <target_id>  (1199) 
1

>  <reference_id>  (1199) 
63

>  <inspiration_ids>  (1199) 
[63, 9]

>  <energy_score>  (1199) 
278.67491530149414

>  <distance_score>  (1199) 
14.388430190022122

>  <path>  (1199) 
/opt/xchem-fragalysis-2/maxwin/BulkDock/SCRATCH/511014/C17722-P63/C17722-P63.minimised.mol

>  <scratch_subdir>  (1199) 
/opt/xchem-fragalysis-2/maxwin/BulkDock/SCRATCH/511014/C17722-P63

>  <fragmenstein_runtime>  (1199) 
22.72259259223938

>  <fragmenstein_outcome>  (1199) 
too moved

>  <fragmenstein_mode>  (1199) 
expansion

>  <fragmenstein_error>  (1199) 


$$$$
C17722-P9
     RDKit          3D

 43 44  0  0  0  0  0  0  0  0999 V2000
   -2.8876  -17.7780   15.3813 C   0  0  0  0  0  0  0  0  0  0  0  0
   -1.6764  -16.8695   15.1706 C   0  0  0  0  0  0  0  0  0  0  0  0
   -2.0354  -15.9525   13.9971 C   0  0  0  0  0  0  0  0  0  0  0  0
   -1.2577  -16.0091   16.3992 C   0  0  0  0  0  0  0  0  0  0  0  0
   -0.4453  -16.7251   17.5175 C   0  0  0  0  0  0  0  0  0  0  0  0
   -1.4479  -17.2563   18.6210 C   0  0  0  0  0  0  0  0  0  0  0  0
   -1.7601  -16.5282   19.5214 O   0  0  0  0  0  0  0  0  0  0  0  0
   -1.9167  -18.5983   18.2754 N   0  0  0  0  0  0  0  0  0  0  0  0
   -2.9868  -19.4348   18.8664 C   0  0  0  0  0  0  0  0  0  0  0  0
   -4.3925  -18.7970   18.7514 C   0  0  0  0  0  0  0  0  0  0  0  0
   -5.5204  -19.8127   18.5062 C   0  0  0  0  0  0  0  0  0  0  0  0
   -5.3436  -21.0259   19.2995 N   0  0  0  0  0  0  0  0  0  0  0  0
   -4.1177  -21.7299   18.8893 C   0  0  0  0  0  0  0  0  0  0  0  0
   -3.0287  -20.8451   18.2504 C   0  0  0  0  0  0  0  0  0  0  0  0
    0.6601  -15.8440   18.0221 N   0  0  0  0  0  0  0  0  0  0  0  0
    2.0029  -16.0027   17.7424 C   0  0  0  0  0  0  0  0  0  0  0  0
    2.6527  -14.9752   18.3865 C   0  0  0  0  0  0  0  0  0  0  0  0
    1.7549  -14.1746   19.0297 N   0  0  0  0  0  0  0  0  0  0  0  0
    0.5710  -14.7002   18.7747 C   0  0  0  0  0  0  0  0  0  0  0  0
   -2.6146  -18.7211   15.8486 H   0  0  0  0  0  0  0  0  0  0  0  0
   -3.3440  -18.0588   14.4242 H   0  0  0  0  0  0  0  0  0  0  0  0
   -3.6584  -17.2809   15.9760 H   0  0  0  0  0  0  0  0  0  0  0  0
   -0.8249  -17.4867   14.8620 H   0  0  0  0  0  0  0  0  0  0  0  0
   -2.1082  -16.5235   13.0649 H   0  0  0  0  0  0  0  0  0  0  0  0
   -3.0001  -15.4611   14.1616 H   0  0  0  0  0  0  0  0  0  0  0  0
   -1.2801  -15.1796   13.8528 H   0  0  0  0  0  0  0  0  0  0  0  0
   -2.1502  -15.5340   16.8272 H   0  0  0  0  0  0  0  0  0  0  0  0
   -0.6412  -15.1863   16.0193 H   0  0  0  0  0  0  0  0  0  0  0  0
    0.0872  -17.5864   17.0941 H   0  0  0  0  0  0  0  0  0  0  0  0
   -1.4948  -18.8812   17.4009 H   0  0  0  0  0  0  0  0  0  0  0  0
   -2.7367  -19.5164   19.9317 H   0  0  0  0  0  0  0  0  0  0  0  0
   -4.4192  -18.0502   17.9518 H   0  0  0  0  0  0  0  0  0  0  0  0
   -4.5937  -18.2468   19.6799 H   0  0  0  0  0  0  0  0  0  0  0  0
   -5.5607  -20.0695   17.4459 H   0  0  0  0  0  0  0  0  0  0  0  0
   -6.4837  -19.3532   18.7531 H   0  0  0  0  0  0  0  0  0  0  0  0
   -5.2445  -20.7550   20.2795 H   0  0  0  0  0  0  0  0  0  0  0  0
   -3.7030  -22.2275   19.7740 H   0  0  0  0  0  0  0  0  0  0  0  0
   -4.3796  -22.5267   18.1887 H   0  0  0  0  0  0  0  0  0  0  0  0
   -2.0525  -21.3331   18.3584 H   0  0  0  0  0  0  0  0  0  0  0  0
   -3.2119  -20.7651   17.1707 H   0  0  0  0  0  0  0  0  0  0  0  0
    2.3722  -16.8071   17.1241 H   0  0  0  0  0  0  0  0  0  0  0  0
    3.7133  -14.7677   18.4041 H   0  0  0  0  0  0  0  0  0  0  0  0
   -0.3772  -14.3073   19.1204 H   0  0  0  0  0  0  0  0  0  0  0  0
  1  2  1  0
  2  3  1  0
  2  4  1  0
  4  5  1  0
  5  6  1  0
  6  7  2  0
  6  8  1  0
  8  9  1  0
  9 10  1  0
 10 11  1  0
 11 12  1  0
 12 13  1  0
 13 14  1  0
  5 15  1  0
 15 16  1  0
 16 17  2  0
 17 18  1  0
 18 19  2  0
 14  9  1  0
 19 15  1  0
  1 20  1  0
  1 21  1  0
  1 22  1  0
  2 23  1  0
  3 24  1  0
  3 25  1  0
  3 26  1  0
  4 27  1  0
  4 28  1  0
  5 29  1  0
  8 30  1  0
  9 31  1  0
 10 32  1  0
 10 33  1  0
 11 34  1  0
 11 35  1  0
 12 36  1  0
 13 37  1  0
 13 38  1  0
 14 39  1  0
 14 40  1  0
 16 41  1  0
 17 42  1  0
 19 43  1  0
M  END
>  <Energy>  (1200) 
28.496333849012117

>  <compound_id>  (1200) 
17722

>  <target_id>  (1200) 
1

>  <reference_id>  (1200) 
9

>  <inspiration_ids>  (1200) 
[63, 9]

>  <energy_score>  (1200) 
-12.5273003602789

>  <distance_score>  (1200) 
13.724059703135941

>  <path>  (1200) 
/opt/xchem-fragalysis-2/maxwin/BulkDock/SCRATCH/511014/C17722-P9/C17722-P9.minimised.mol

>  <scratch_subdir>  (1200) 
/opt/xchem-fragalysis-2/maxwin/BulkDock/SCRATCH/511014/C17722-P9

>  <fragmenstein_runtime>  (1200) 
17.425744771957397

>  <fragmenstein_outcome>  (1200) 
too moved

>  <fragmenstein_mode>  (1200) 
expansion

>  <fragmenstein_error>  (1200) 


$$$$
C17723-P63
     RDKit          3D

 50 52  0  0  0  0  0  0  0  0999 V2000
   -6.5287  -11.8409   14.3881 C   0  0  0  0  0  0  0  0  0  0  0  0
   -6.3175  -10.7612   15.4478 C   0  0  0  0  0  0  0  0  0  0  0  0
   -7.3193   -9.6294   15.1696 C   0  0  0  0  0  0  0  0  0  0  0  0
   -6.5060  -11.2753   16.9000 C   0  0  0  0  0  0  0  0  0  0  0  0
   -5.2639  -11.7898   17.6931 C   0  0  0  0  0  0  0  0  0  0  0  0
   -4.7876  -13.2935   17.4239 C   0  0  0  0  0  0  0  0  0  0  0  0
   -3.7379  -13.6228   17.9208 O   0  0  0  0  0  0  0  0  0  0  0  0
   -5.6733  -14.0196   16.5195 N   0  0  0  0  0  0  0  0  0  0  0  0
   -6.8188  -14.8959   17.3946 C   0  0  0  0  0  0  0  0  0  0  0  0
   -8.0337  -15.5568   16.6526 C   0  0  0  0  0  0  0  0  0  0  0  0
   -8.9949  -16.2124   17.6469 C   0  0  0  0  0  0  0  0  0  0  0  0
   -8.3822  -17.2206   18.5072 N   0  0  0  0  0  0  0  0  0  0  0  0
   -6.9246  -17.1750   18.5798 C   0  0  0  0  0  0  0  0  0  0  0  0
   -6.3138  -15.7705   18.5775 C   0  0  0  0  0  0  0  0  0  0  0  0
   -5.5016  -15.3574   15.8361 C   0  0  0  0  0  0  0  0  0  0  0  0
   -4.6028  -15.3284   14.5993 C   0  0  0  0  0  0  0  0  0  0  0  0
   -6.0426  -15.6293   14.4384 C   0  0  0  0  0  0  0  0  0  0  0  0
   -4.1687  -10.7447   17.8631 N   0  0  0  0  0  0  0  0  0  0  0  0
   -2.9851  -10.8611   18.5640 C   0  0  0  0  0  0  0  0  0  0  0  0
   -2.4953   -9.5834   18.7292 C   0  0  0  0  0  0  0  0  0  0  0  0
   -3.3189   -8.6734   18.1477 N   0  0  0  0  0  0  0  0  0  0  0  0
   -4.2975   -9.3853   17.6393 C   0  0  0  0  0  0  0  0  0  0  0  0
   -6.5290  -11.4069   13.3819 H   0  0  0  0  0  0  0  0  0  0  0  0
   -7.4811  -12.3628   14.5278 H   0  0  0  0  0  0  0  0  0  0  0  0
   -5.7245  -12.5731   14.4072 H   0  0  0  0  0  0  0  0  0  0  0  0
   -5.3133  -10.3502   15.3097 H   0  0  0  0  0  0  0  0  0  0  0  0
   -7.1789   -8.7965   15.8660 H   0  0  0  0  0  0  0  0  0  0  0  0
   -8.3519   -9.9822   15.2665 H   0  0  0  0  0  0  0  0  0  0  0  0
   -7.1891   -9.2334   14.1565 H   0  0  0  0  0  0  0  0  0  0  0  0
   -6.9242  -10.4534   17.4993 H   0  0  0  0  0  0  0  0  0  0  0  0
   -7.2965  -12.0337   16.9065 H   0  0  0  0  0  0  0  0  0  0  0  0
   -5.6225  -11.8639   18.7345 H   0  0  0  0  0  0  0  0  0  0  0  0
   -7.2847  -14.0446   17.9159 H   0  0  0  0  0  0  0  0  0  0  0  0
   -8.5573  -14.7957   16.0626 H   0  0  0  0  0  0  0  0  0  0  0  0
   -7.7352  -16.3517   15.9671 H   0  0  0  0  0  0  0  0  0  0  0  0
   -9.8327  -16.6637   17.1028 H   0  0  0  0  0  0  0  0  0  0  0  0
   -9.4283  -15.4358   18.2882 H   0  0  0  0  0  0  0  0  0  0  0  0
   -8.6752  -18.1567   18.2241 H   0  0  0  0  0  0  0  0  0  0  0  0
   -6.4986  -17.7226   17.7438 H   0  0  0  0  0  0  0  0  0  0  0  0
   -6.6066  -17.7029   19.4857 H   0  0  0  0  0  0  0  0  0  0  0  0
   -5.2213  -15.8463   18.5926 H   0  0  0  0  0  0  0  0  0  0  0  0
   -6.5856  -15.2728   19.5185 H   0  0  0  0  0  0  0  0  0  0  0  0
   -5.1458  -16.1752   16.4651 H   0  0  0  0  0  0  0  0  0  0  0  0
   -3.8904  -16.1375   14.4773 H   0  0  0  0  0  0  0  0  0  0  0  0
   -4.2685  -14.3876   14.1924 H   0  0  0  0  0  0  0  0  0  0  0  0
   -6.3088  -16.6452   14.1699 H   0  0  0  0  0  0  0  0  0  0  0  0
   -6.6715  -14.8784   13.9743 H   0  0  0  0  0  0  0  0  0  0  0  0
   -2.6100  -11.8073   18.9275 H   0  0  0  0  0  0  0  0  0  0  0  0
   -1.6177   -9.2624   19.2683 H   0  0  0  0  0  0  0  0  0  0  0  0
   -5.1485   -8.9481   17.1399 H   0  0  0  0  0  0  0  0  0  0  0  0
  1  2  1  0
  2  3  1  0
  2  4  1  0
  4  5  1  0
  5  6  1  0
  6  7  2  0
  6  8  1  0
  8  9  1  0
  9 10  1  0
 10 11  1  0
 11 12  1  0
 12 13  1  0
 13 14  1  0
  8 15  1  0
 15 16  1  0
 16 17  1  0
  5 18  1  0
 18 19  1  0
 19 20  2  0
 20 21  1  0
 21 22  2  0
 14  9  1  0
 17 15  1  0
 22 18  1  0
  1 23  1  0
  1 24  1  0
  1 25  1  0
  2 26  1  0
  3 27  1  0
  3 28  1  0
  3 29  1  0
  4 30  1  0
  4 31  1  0
  5 32  1  0
  9 33  1  0
 10 34  1  0
 10 35  1  0
 11 36  1  0
 11 37  1  0
 12 38  1  0
 13 39  1  0
 13 40  1  0
 14 41  1  0
 14 42  1  0
 15 43  1  0
 16 44  1  0
 16 45  1  0
 17 46  1  0
 17 47  1  0
 19 48  1  0
 20 49  1  0
 22 50  1  0
M  END
>  <Energy>  (1201) 
124.17683762960434

>  <compound_id>  (1201) 
17723

>  <target_id>  (1201) 
1

>  <reference_id>  (1201) 
63

>  <inspiration_ids>  (1201) 
[63, 9]

>  <energy_score>  (1201) 
58.758368547977966

>  <distance_score>  (1201) 
14.141902089603274

>  <path>  (1201) 
/opt/xchem-fragalysis-2/maxwin/BulkDock/SCRATCH/511014/C17723-P63/C17723-P63.minimised.mol

>  <scratch_subdir>  (1201) 
/opt/xchem-fragalysis-2/maxwin/BulkDock/SCRATCH/511014/C17723-P63

>  <fragmenstein_runtime>  (1201) 
30.487097024917603

>  <fragmenstein_outcome>  (1201) 
too moved

>  <fragmenstein_mode>  (1201) 
expansion

>  <fragmenstein_error>  (1201) 


$$$$
C17723-P9
     RDKit          3D

 50 52  0  0  0  0  0  0  0  0999 V2000
    0.7737  -11.7948    6.4872 C   0  0  0  0  0  0  0  0  0  0  0  0
    1.1332  -10.4990    7.6332 C   0  0  0  0  0  0  0  0  0  0  0  0
    2.3345  -10.1867    6.7550 C   0  0  0  0  0  0  0  0  0  0  0  0
    0.5817  -10.1748    9.5927 C   0  0  0  0  0  0  0  0  0  0  0  0
    0.7408  -11.5529   11.0479 C   0  0  0  0  0  0  0  0  0  0  0  0
   -0.0353  -13.1170   11.8718 C   0  0  0  0  0  0  0  0  0  0  0  0
   -0.0699  -12.9653   13.0452 O   0  0  0  0  0  0  0  0  0  0  0  0
   -0.7921  -14.5476   11.2058 N   0  0  0  0  0  0  0  0  0  0  0  0
    0.3515  -15.9730   11.0782 C   0  0  0  0  0  0  0  0  0  0  0  0
    0.1631  -17.4291   11.9828 C   0  0  0  0  0  0  0  0  0  0  0  0
   -0.4466  -18.7032   11.3779 C   0  0  0  0  0  0  0  0  0  0  0  0
    0.1015  -18.9666   10.0695 N   0  0  0  0  0  0  0  0  0  0  0  0
   -0.0169  -17.8133    9.2053 C   0  0  0  0  0  0  0  0  0  0  0  0
    0.8417  -16.6486    9.7405 C   0  0  0  0  0  0  0  0  0  0  0  0
   -1.6138  -15.6343   11.8429 C   0  0  0  0  0  0  0  0  0  0  0  0
   -2.6178  -16.3284   10.9068 C   0  0  0  0  0  0  0  0  0  0  0  0
   -3.1253  -15.6674   12.1025 C   0  0  0  0  0  0  0  0  0  0  0  0
    2.2490  -11.7057   10.7105 N   0  0  0  0  0  0  0  0  0  0  0  0
    2.8102  -12.3498    9.6316 C   0  0  0  0  0  0  0  0  0  0  0  0
    3.8526  -11.6368    9.3330 C   0  0  0  0  0  0  0  0  0  0  0  0
    3.9349  -10.5530   10.0729 N   0  0  0  0  0  0  0  0  0  0  0  0
    3.0014  -10.6551   10.9128 C   0  0  0  0  0  0  0  0  0  0  0  0
   -0.2549  -11.8547    6.1549 H   0  0  0  0  0  0  0  0  0  0  0  0
    1.1175  -12.7639    6.8305 H   0  0  0  0  0  0  0  0  0  0  0  0
    1.2125  -11.6843    5.4824 H   0  0  0  0  0  0  0  0  0  0  0  0
    0.5116   -9.6642    7.2637 H   0  0  0  0  0  0  0  0  0  0  0  0
    1.9608   -9.6036    5.8994 H   0  0  0  0  0  0  0  0  0  0  0  0
    3.2760   -9.8873    7.1664 H   0  0  0  0  0  0  0  0  0  0  0  0
    2.6544  -10.9810    6.1057 H   0  0  0  0  0  0  0  0  0  0  0  0
   -0.3516   -9.6345    9.4336 H   0  0  0  0  0  0  0  0  0  0  0  0
    1.0167   -9.3475   10.1578 H   0  0  0  0  0  0  0  0  0  0  0  0
    0.7159  -10.8734   11.8854 H   0  0  0  0  0  0  0  0  0  0  0  0
    1.1947  -15.4611   11.4737 H   0  0  0  0  0  0  0  0  0  0  0  0
   -0.2687  -17.3329   12.9808 H   0  0  0  0  0  0  0  0  0  0  0  0
    1.2044  -17.7370   12.1574 H   0  0  0  0  0  0  0  0  0  0  0  0
   -0.1737  -19.5444   12.0282 H   0  0  0  0  0  0  0  0  0  0  0  0
   -1.5313  -18.7103   11.3738 H   0  0  0  0  0  0  0  0  0  0  0  0
   -0.3302  -19.7809    9.6425 H   0  0  0  0  0  0  0  0  0  0  0  0
   -1.0645  -17.5443    9.0516 H   0  0  0  0  0  0  0  0  0  0  0  0
    0.3771  -18.0921    8.2208 H   0  0  0  0  0  0  0  0  0  0  0  0
    1.8265  -17.0855    9.9822 H   0  0  0  0  0  0  0  0  0  0  0  0
    1.1300  -15.9879    8.9262 H   0  0  0  0  0  0  0  0  0  0  0  0
   -1.2862  -15.8000   12.8642 H   0  0  0  0  0  0  0  0  0  0  0  0
   -2.8404  -15.8579    9.9549 H   0  0  0  0  0  0  0  0  0  0  0  0
   -2.7469  -17.3926   10.8698 H   0  0  0  0  0  0  0  0  0  0  0  0
   -3.7839  -14.8351   11.9744 H   0  0  0  0  0  0  0  0  0  0  0  0
   -3.4702  -16.3047   12.9156 H   0  0  0  0  0  0  0  0  0  0  0  0
    2.5445  -13.2857    9.1966 H   0  0  0  0  0  0  0  0  0  0  0  0
    4.6723  -12.0299    8.8272 H   0  0  0  0  0  0  0  0  0  0  0  0
    2.8543   -9.9569   11.6531 H   0  0  0  0  0  0  0  0  0  0  0  0
  1  2  1  0
  2  3  1  0
  2  4  1  0
  4  5  1  0
  5  6  1  0
  6  7  2  0
  6  8  1  0
  8  9  1  0
  9 10  1  0
 10 11  1  0
 11 12  1  0
 12 13  1  0
 13 14  1  0
  8 15  1  0
 15 16  1  0
 16 17  1  0
  5 18  1  0
 18 19  1  0
 19 20  2  0
 20 21  1  0
 21 22  2  0
 14  9  1  0
 17 15  1  0
 22 18  1  0
  1 23  1  0
  1 24  1  0
  1 25  1  0
  2 26  1  0
  3 27  1  0
  3 28  1  0
  3 29  1  0
  4 30  1  0
  4 31  1  0
  5 32  1  0
  9 33  1  0
 10 34  1  0
 10 35  1  0
 11 36  1  0
 11 37  1  0
 12 38  1  0
 13 39  1  0
 13 40  1  0
 14 41  1  0
 14 42  1  0
 15 43  1  0
 16 44  1  0
 16 45  1  0
 17 46  1  0
 17 47  1  0
 19 48  1  0
 20 49  1  0
 22 50  1  0
M  END
>  <Energy>  (1202) 
532.42230289802626

>  <compound_id>  (1202) 
17723

>  <target_id>  (1202) 
1

>  <reference_id>  (1202) 
9

>  <inspiration_ids>  (1202) 
[63, 9]

>  <energy_score>  (1202) 
467.0038338163872

>  <distance_score>  (1202) 
14.72411389684219

>  <path>  (1202) 
/opt/xchem-fragalysis-2/maxwin/BulkDock/SCRATCH/511014/C17723-P9/C17723-P9.minimised.mol

>  <scratch_subdir>  (1202) 
/opt/xchem-fragalysis-2/maxwin/BulkDock/SCRATCH/511014/C17723-P9

>  <fragmenstein_runtime>  (1202) 
24.977740049362183

>  <fragmenstein_outcome>  (1202) 
too moved

>  <fragmenstein_mode>  (1202) 
expansion

>  <fragmenstein_error>  (1202) 


$$$$
C17729-P63
     RDKit          3D

 40 42  0  0  0  0  0  0  0  0999 V2000
   -3.0184  -16.7192   17.5780 C   0  0  0  0  0  0  0  0  0  0  0  0
   -3.0879  -16.4358   16.1672 O   0  0  0  0  0  0  0  0  0  0  0  0
   -2.1262  -15.6955   15.2155 N   0  0  0  0  0  0  0  0  0  0  0  0
   -1.3356  -13.9273   15.2809 C   0  0  0  0  0  0  0  0  0  0  0  0
   -1.6660  -13.3919   16.3434 O   0  0  0  0  0  0  0  0  0  0  0  0
   -0.2238  -12.3956   13.9632 C   0  0  0  0  0  0  0  0  0  0  0  0
   -1.0249  -10.6466   14.2416 C   0  0  0  0  0  0  0  0  0  0  0  0
   -0.5604   -9.4124   15.6003 N   0  0  0  0  0  0  0  0  0  0  0  0
    1.1690   -8.6008   15.4303 C   0  0  0  0  0  0  0  0  0  0  0  0
    2.7064   -9.8741   14.6481 C   0  0  0  0  0  0  0  0  0  0  0  0
    4.2500   -9.1350   13.7325 N   0  0  0  0  0  0  0  0  0  0  0  0
    4.3573   -7.8013   13.1458 C   0  0  0  0  0  0  0  0  0  0  0  0
    5.8652   -7.4899   12.9467 C   0  0  0  0  0  0  0  0  0  0  0  0
    6.7539   -8.1027   13.4958 N   0  0  0  0  0  0  0  0  0  0  0  0
    5.7666   -8.5465   14.0911 C   0  0  0  0  0  0  0  0  0  0  0  0
    1.5774  -11.5153   14.0107 N   0  0  0  0  0  0  0  0  0  0  0  0
   -3.7507  -16.2984   14.5309 C   0  0  0  0  0  0  0  0  0  0  0  0
   -4.2373  -16.1003   12.8465 C   0  0  0  0  0  0  0  0  0  0  0  0
   -5.5522  -16.6926   12.4016 C   0  0  0  0  0  0  0  0  0  0  0  0
   -5.5575  -18.0545   12.8245 N   0  0  0  0  0  0  0  0  0  0  0  0
   -5.6826  -18.0801   14.2563 C   0  0  0  0  0  0  0  0  0  0  0  0
   -4.6953  -17.4515   15.1781 C   0  0  0  0  0  0  0  0  0  0  0  0
   -2.2505  -16.1875   18.1177 H   0  0  0  0  0  0  0  0  0  0  0  0
   -2.8328  -17.7948   17.7065 H   0  0  0  0  0  0  0  0  0  0  0  0
   -4.0102  -16.5702   18.0040 H   0  0  0  0  0  0  0  0  0  0  0  0
   -1.2951  -10.0586   13.3808 H   0  0  0  0  0  0  0  0  0  0  0  0
    1.3163   -8.0136   16.3759 H   0  0  0  0  0  0  0  0  0  0  0  0
    3.6892   -7.5527   12.3094 H   0  0  0  0  0  0  0  0  0  0  0  0
    6.5743   -7.6089   12.0781 H   0  0  0  0  0  0  0  0  0  0  0  0
    6.3518   -7.9682   14.9400 H   0  0  0  0  0  0  0  0  0  0  0  0
   -3.1082  -17.1420   14.1473 H   0  0  0  0  0  0  0  0  0  0  0  0
   -4.2546  -15.0459   12.5397 H   0  0  0  0  0  0  0  0  0  0  0  0
   -3.4862  -16.6094   12.2181 H   0  0  0  0  0  0  0  0  0  0  0  0
   -6.4167  -16.1344   12.7756 H   0  0  0  0  0  0  0  0  0  0  0  0
   -5.6191  -16.6493   11.3083 H   0  0  0  0  0  0  0  0  0  0  0  0
   -4.7349  -18.5742   12.5121 H   0  0  0  0  0  0  0  0  0  0  0  0
   -5.6449  -19.1330   14.4835 H   0  0  0  0  0  0  0  0  0  0  0  0
   -6.6458  -17.6410   14.5405 H   0  0  0  0  0  0  0  0  0  0  0  0
   -5.2592  -17.0382   16.0266 H   0  0  0  0  0  0  0  0  0  0  0  0
   -4.0768  -18.2773   15.5703 H   0  0  0  0  0  0  0  0  0  0  0  0
  1  2  1  0
  2  3  1  0
  3  4  1  0
  4  5  2  0
  4  6  1  0
  6  7  2  0
  7  8  1  0
  8  9  2  0
  9 10  1  0
 10 11  1  0
 11 12  1  0
 12 13  2  0
 13 14  1  0
 14 15  2  0
 10 16  2  0
  3 17  1  0
 17 18  1  0
 18 19  1  0
 19 20  1  0
 20 21  1  0
 21 22  1  0
 16  6  1  0
 22 17  1  0
 15 11  1  0
  1 23  1  0
  1 24  1  0
  1 25  1  0
  7 26  1  0
  9 27  1  0
 12 28  1  0
 13 29  1  0
 15 30  1  0
 17 31  1  0
 18 32  1  0
 18 33  1  0
 19 34  1  0
 19 35  1  0
 20 36  1  0
 21 37  1  0
 21 38  1  0
 22 39  1  0
 22 40  1  0
M  END
>  <Energy>  (1203) 
2126.1809073572749

>  <compound_id>  (1203) 
17729

>  <target_id>  (1203) 
1

>  <reference_id>  (1203) 
63

>  <inspiration_ids>  (1203) 
[63, 9]

>  <energy_score>  (1203) 
1958.8066466973069

>  <distance_score>  (1203) 
11.173512587007531

>  <path>  (1203) 
/opt/xchem-fragalysis-2/maxwin/BulkDock/SCRATCH/511014/C17729-P63/C17729-P63.minimised.mol

>  <scratch_subdir>  (1203) 
/opt/xchem-fragalysis-2/maxwin/BulkDock/SCRATCH/511014/C17729-P63

>  <fragmenstein_runtime>  (1203) 
18.803056001663208

>  <fragmenstein_outcome>  (1203) 
too moved

>  <fragmenstein_mode>  (1203) 
expansion

>  <fragmenstein_error>  (1203) 


$$$$
C17729-P9
     RDKit          3D

 40 42  0  0  0  0  0  0  0  0999 V2000
   -7.1383  -16.3201   13.1619 C   0  0  0  0  0  0  0  0  0  0  0  0
   -5.9824  -16.6467   12.3852 O   0  0  0  0  0  0  0  0  0  0  0  0
   -4.9007  -15.9059   12.9292 N   0  0  0  0  0  0  0  0  0  0  0  0
   -4.3684  -14.5566   12.5707 C   0  0  0  0  0  0  0  0  0  0  0  0
   -4.6810  -13.8229   11.6755 O   0  0  0  0  0  0  0  0  0  0  0  0
   -3.1005  -13.8682   13.8323 C   0  0  0  0  0  0  0  0  0  0  0  0
   -1.3381  -13.9832   13.9868 C   0  0  0  0  0  0  0  0  0  0  0  0
   -0.2410  -14.2741   12.7012 N   0  0  0  0  0  0  0  0  0  0  0  0
    0.7381  -13.4288   12.5865 C   0  0  0  0  0  0  0  0  0  0  0  0
    0.6133  -12.5832   13.5662 C   0  0  0  0  0  0  0  0  0  0  0  0
    2.0720  -12.4788   15.0060 N   0  0  0  0  0  0  0  0  0  0  0  0
    2.8423  -11.7273   16.6083 C   0  0  0  0  0  0  0  0  0  0  0  0
    3.2949  -10.5115   16.8177 C   0  0  0  0  0  0  0  0  0  0  0  0
    3.8317  -10.5117   15.6751 N   0  0  0  0  0  0  0  0  0  0  0  0
    3.8088  -11.6659   15.2428 C   0  0  0  0  0  0  0  0  0  0  0  0
   -1.2817  -13.0576   13.7447 N   0  0  0  0  0  0  0  0  0  0  0  0
   -4.0950  -17.0414   12.2122 C   0  0  0  0  0  0  0  0  0  0  0  0
   -4.6299  -17.9374   11.0143 C   0  0  0  0  0  0  0  0  0  0  0  0
   -5.3848  -19.2140   11.4312 C   0  0  0  0  0  0  0  0  0  0  0  0
   -4.6696  -19.9793   12.4276 N   0  0  0  0  0  0  0  0  0  0  0  0
   -4.4550  -19.1969   13.6228 C   0  0  0  0  0  0  0  0  0  0  0  0
   -3.5652  -18.0155   13.2974 C   0  0  0  0  0  0  0  0  0  0  0  0
   -8.0139  -16.8690   12.8436 H   0  0  0  0  0  0  0  0  0  0  0  0
   -6.9857  -16.6102   14.2064 H   0  0  0  0  0  0  0  0  0  0  0  0
   -7.3827  -15.2586   13.0523 H   0  0  0  0  0  0  0  0  0  0  0  0
   -1.1219  -14.1618   15.1702 H   0  0  0  0  0  0  0  0  0  0  0  0
    1.3179  -13.5517   11.7338 H   0  0  0  0  0  0  0  0  0  0  0  0
    3.0955  -12.4295   17.4630 H   0  0  0  0  0  0  0  0  0  0  0  0
    3.2993   -9.7627   17.5897 H   0  0  0  0  0  0  0  0  0  0  0  0
    4.6215  -11.9845   14.5607 H   0  0  0  0  0  0  0  0  0  0  0  0
   -3.2530  -16.5407   11.7257 H   0  0  0  0  0  0  0  0  0  0  0  0
   -3.7416  -18.2685   10.4551 H   0  0  0  0  0  0  0  0  0  0  0  0
   -5.2133  -17.3438   10.2998 H   0  0  0  0  0  0  0  0  0  0  0  0
   -6.3956  -19.0020   11.7802 H   0  0  0  0  0  0  0  0  0  0  0  0
   -5.4719  -19.8366   10.5456 H   0  0  0  0  0  0  0  0  0  0  0  0
   -5.1005  -20.8830   12.6452 H   0  0  0  0  0  0  0  0  0  0  0  0
   -3.9373  -19.8141   14.3649 H   0  0  0  0  0  0  0  0  0  0  0  0
   -5.3902  -18.8623   14.0742 H   0  0  0  0  0  0  0  0  0  0  0  0
   -3.3654  -17.4830   14.2311 H   0  0  0  0  0  0  0  0  0  0  0  0
   -2.6213  -18.4336   12.9289 H   0  0  0  0  0  0  0  0  0  0  0  0
  1  2  1  0
  2  3  1  0
  3  4  1  0
  4  5  2  0
  4  6  1  0
  6  7  2  0
  7  8  1  0
  8  9  2  0
  9 10  1  0
 10 11  1  0
 11 12  1  0
 12 13  2  0
 13 14  1  0
 14 15  2  0
 10 16  2  0
  3 17  1  0
 17 18  1  0
 18 19  1  0
 19 20  1  0
 20 21  1  0
 21 22  1  0
 16  6  1  0
 22 17  1  0
 15 11  1  0
  1 23  1  0
  1 24  1  0
  1 25  1  0
  7 26  1  0
  9 27  1  0
 12 28  1  0
 13 29  1  0
 15 30  1  0
 17 31  1  0
 18 32  1  0
 18 33  1  0
 19 34  1  0
 19 35  1  0
 20 36  1  0
 21 37  1  0
 21 38  1  0
 22 39  1  0
 22 40  1  0
M  END
>  <Energy>  (1204) 
1594.4168700578691

>  <compound_id>  (1204) 
17729

>  <target_id>  (1204) 
1

>  <reference_id>  (1204) 
9

>  <inspiration_ids>  (1204) 
[63, 9]

>  <energy_score>  (1204) 
1427.042609397879

>  <distance_score>  (1204) 
11.570576422237092

>  <path>  (1204) 
/opt/xchem-fragalysis-2/maxwin/BulkDock/SCRATCH/511014/C17729-P9/C17729-P9.minimised.mol

>  <scratch_subdir>  (1204) 
/opt/xchem-fragalysis-2/maxwin/BulkDock/SCRATCH/511014/C17729-P9

>  <fragmenstein_runtime>  (1204) 
16.319150924682617

>  <fragmenstein_outcome>  (1204) 
too moved

>  <fragmenstein_mode>  (1204) 
expansion

>  <fragmenstein_error>  (1204) 


$$$$
C17730-P63
     RDKit          3D

 42 44  0  0  0  0  0  0  0  0999 V2000
    2.5272  -10.4969   10.7192 O   0  0  0  0  0  0  0  0  0  0  0  0
    1.3875  -10.1711   10.9945 C   0  0  0  0  0  0  0  0  0  0  0  0
    0.1053  -11.2543   11.5408 N   0  0  0  0  0  0  0  0  0  0  0  0
    0.1332  -12.9435   11.9298 C   0  0  0  0  0  0  0  0  0  0  0  0
   -0.7541  -14.4676   11.4348 C   0  0  0  0  0  0  0  0  0  0  0  0
   -1.6016  -15.7394   12.0518 C   0  0  0  0  0  0  0  0  0  0  0  0
   -3.0128  -15.5915   12.7108 C   0  0  0  0  0  0  0  0  0  0  0  0
   -3.9282  -16.8449   12.6842 C   0  0  0  0  0  0  0  0  0  0  0  0
   -3.1555  -18.0647   12.7634 N   0  0  0  0  0  0  0  0  0  0  0  0
   -2.2756  -18.2068   11.6029 C   0  0  0  0  0  0  0  0  0  0  0  0
   -1.7921  -16.8676   10.9856 C   0  0  0  0  0  0  0  0  0  0  0  0
    1.1252   -8.2223   10.7593 C   0  0  0  0  0  0  0  0  0  0  0  0
    1.9759   -7.1110   11.1504 C   0  0  0  0  0  0  0  0  0  0  0  0
    1.8853   -5.7768   10.8352 N   0  0  0  0  0  0  0  0  0  0  0  0
    0.9855   -5.4975    9.8825 C   0  0  0  0  0  0  0  0  0  0  0  0
    0.2746   -6.5019    9.2516 C   0  0  0  0  0  0  0  0  0  0  0  0
   -0.6069   -6.1928    8.1819 N   0  0  0  0  0  0  0  0  0  0  0  0
   -1.4037   -7.0972    7.5121 C   0  0  0  0  0  0  0  0  0  0  0  0
   -2.0965   -6.3727    6.5737 C   0  0  0  0  0  0  0  0  0  0  0  0
   -1.7569   -5.0504    6.6387 N   0  0  0  0  0  0  0  0  0  0  0  0
   -0.8623   -4.9718    7.6004 C   0  0  0  0  0  0  0  0  0  0  0  0
    0.3718   -7.8361    9.6291 N   0  0  0  0  0  0  0  0  0  0  0  0
   -0.7061  -10.7168   11.7755 H   0  0  0  0  0  0  0  0  0  0  0  0
    1.0294  -13.1611   11.3893 H   0  0  0  0  0  0  0  0  0  0  0  0
    0.2166  -12.9866   13.0145 H   0  0  0  0  0  0  0  0  0  0  0  0
    0.1191  -15.0456   11.1022 H   0  0  0  0  0  0  0  0  0  0  0  0
   -1.3497  -14.2085   10.5913 H   0  0  0  0  0  0  0  0  0  0  0  0
   -0.9144  -16.1984   12.7419 H   0  0  0  0  0  0  0  0  0  0  0  0
   -2.8809  -15.2797   13.7517 H   0  0  0  0  0  0  0  0  0  0  0  0
   -3.5901  -14.8182   12.2008 H   0  0  0  0  0  0  0  0  0  0  0  0
   -4.6250  -16.7899   13.5281 H   0  0  0  0  0  0  0  0  0  0  0  0
   -4.5431  -16.8421   11.7750 H   0  0  0  0  0  0  0  0  0  0  0  0
   -3.7621  -18.8876   12.8198 H   0  0  0  0  0  0  0  0  0  0  0  0
   -1.4029  -18.7912   11.9154 H   0  0  0  0  0  0  0  0  0  0  0  0
   -2.7800  -18.7862   10.8203 H   0  0  0  0  0  0  0  0  0  0  0  0
   -0.8495  -17.0516   10.4565 H   0  0  0  0  0  0  0  0  0  0  0  0
   -2.5151  -16.5266   10.2330 H   0  0  0  0  0  0  0  0  0  0  0  0
    2.9601   -7.3225   11.5716 H   0  0  0  0  0  0  0  0  0  0  0  0
    0.9105   -4.4472    9.6322 H   0  0  0  0  0  0  0  0  0  0  0  0
   -1.4097   -8.1479    7.7619 H   0  0  0  0  0  0  0  0  0  0  0  0
   -2.8224   -6.7352    5.8570 H   0  0  0  0  0  0  0  0  0  0  0  0
   -0.3791   -4.0519    7.8990 H   0  0  0  0  0  0  0  0  0  0  0  0
  1  2  2  0
  2  3  1  0
  3  4  1  0
  4  5  1  0
  5  6  1  0
  6  7  1  0
  7  8  1  0
  8  9  1  0
  9 10  1  0
 10 11  1  0
  2 12  1  0
 12 13  2  0
 13 14  1  0
 14 15  2  0
 15 16  1  0
 16 17  1  0
 17 18  1  0
 18 19  2  0
 19 20  1  0
 20 21  2  0
 16 22  2  0
 11  6  1  0
 22 12  1  0
 21 17  1  0
  3 23  1  0
  4 24  1  0
  4 25  1  0
  5 26  1  0
  5 27  1  0
  6 28  1  0
  7 29  1  0
  7 30  1  0
  8 31  1  0
  8 32  1  0
  9 33  1  0
 10 34  1  0
 10 35  1  0
 11 36  1  0
 11 37  1  0
 13 38  1  0
 15 39  1  0
 18 40  1  0
 19 41  1  0
 21 42  1  0
M  END
>  <Energy>  (1205) 
335.62461638565696

>  <compound_id>  (1205) 
17730

>  <target_id>  (1205) 
1

>  <reference_id>  (1205) 
63

>  <inspiration_ids>  (1205) 
[63, 9]

>  <energy_score>  (1205) 
205.3721713545524

>  <distance_score>  (1205) 
13.627724037884203

>  <path>  (1205) 
/opt/xchem-fragalysis-2/maxwin/BulkDock/SCRATCH/511014/C17730-P63/C17730-P63.minimised.mol

>  <scratch_subdir>  (1205) 
/opt/xchem-fragalysis-2/maxwin/BulkDock/SCRATCH/511014/C17730-P63

>  <fragmenstein_runtime>  (1205) 
19.997431993484497

>  <fragmenstein_outcome>  (1205) 
too moved

>  <fragmenstein_mode>  (1205) 
expansion

>  <fragmenstein_error>  (1205) 


$$$$
C17730-P9
     RDKit          3D

 42 44  0  0  0  0  0  0  0  0999 V2000
    5.8096  -11.1989   13.3513 O   0  0  0  0  0  0  0  0  0  0  0  0
    5.8392  -10.5253   12.3190 C   0  0  0  0  0  0  0  0  0  0  0  0
    4.3243  -10.6899   10.9644 N   0  0  0  0  0  0  0  0  0  0  0  0
    2.7905  -11.8338   10.8612 C   0  0  0  0  0  0  0  0  0  0  0  0
    1.1111  -12.8939   11.4519 C   0  0  0  0  0  0  0  0  0  0  0  0
    0.5236  -14.7518   11.4596 C   0  0  0  0  0  0  0  0  0  0  0  0
   -1.0141  -15.0494   11.5636 C   0  0  0  0  0  0  0  0  0  0  0  0
   -1.7127  -16.3659   11.1534 C   0  0  0  0  0  0  0  0  0  0  0  0
   -0.9733  -17.5061   11.6097 N   0  0  0  0  0  0  0  0  0  0  0  0
    0.3604  -17.5162   11.0310 C   0  0  0  0  0  0  0  0  0  0  0  0
    1.0379  -16.1381   10.6783 C   0  0  0  0  0  0  0  0  0  0  0  0
    7.5212   -9.0622   12.0865 C   0  0  0  0  0  0  0  0  0  0  0  0
    8.8327   -9.1740   10.6253 C   0  0  0  0  0  0  0  0  0  0  0  0
    9.8892   -9.1905    9.5015 N   0  0  0  0  0  0  0  0  0  0  0  0
   10.8751   -8.5541    9.9627 C   0  0  0  0  0  0  0  0  0  0  0  0
   10.3223   -7.4987   10.5623 C   0  0  0  0  0  0  0  0  0  0  0  0
   11.5670   -6.0526   11.0774 N   0  0  0  0  0  0  0  0  0  0  0  0
   11.3599   -4.4373   11.9313 C   0  0  0  0  0  0  0  0  0  0  0  0
   12.5906   -3.8883   12.0888 C   0  0  0  0  0  0  0  0  0  0  0  0
   13.0466   -4.3296   10.9100 N   0  0  0  0  0  0  0  0  0  0  0  0
   12.1151   -5.0301   10.2683 C   0  0  0  0  0  0  0  0  0  0  0  0
    8.6295   -7.7140   11.2368 N   0  0  0  0  0  0  0  0  0  0  0  0
    4.4647  -10.0060   10.2186 H   0  0  0  0  0  0  0  0  0  0  0  0
    2.1821  -10.9138   10.8076 H   0  0  0  0  0  0  0  0  0  0  0  0
    2.9470  -12.1464    9.8137 H   0  0  0  0  0  0  0  0  0  0  0  0
    0.8570  -12.7359   12.5323 H   0  0  0  0  0  0  0  0  0  0  0  0
    0.2555  -12.2658   11.1814 H   0  0  0  0  0  0  0  0  0  0  0  0
    0.8352  -14.8650   12.4464 H   0  0  0  0  0  0  0  0  0  0  0  0
   -1.4923  -14.2933   10.9857 H   0  0  0  0  0  0  0  0  0  0  0  0
   -1.2604  -14.9816   12.6092 H   0  0  0  0  0  0  0  0  0  0  0  0
   -2.7084  -16.3778   11.6143 H   0  0  0  0  0  0  0  0  0  0  0  0
   -1.8987  -16.4357   10.0812 H   0  0  0  0  0  0  0  0  0  0  0  0
   -1.4516  -18.3812   11.4024 H   0  0  0  0  0  0  0  0  0  0  0  0
    1.0121  -18.1086   11.6779 H   0  0  0  0  0  0  0  0  0  0  0  0
    0.3164  -18.0896   10.0943 H   0  0  0  0  0  0  0  0  0  0  0  0
    0.9007  -16.0589    9.6011 H   0  0  0  0  0  0  0  0  0  0  0  0
    2.1080  -16.3259   10.7179 H   0  0  0  0  0  0  0  0  0  0  0  0
    9.3906  -10.2880   10.6083 H   0  0  0  0  0  0  0  0  0  0  0  0
   11.8483   -8.9286    9.8218 H   0  0  0  0  0  0  0  0  0  0  0  0
   10.8708   -4.4099   12.8965 H   0  0  0  0  0  0  0  0  0  0  0  0
   13.0548   -3.2198   12.8058 H   0  0  0  0  0  0  0  0  0  0  0  0
   11.8792   -4.8941    9.2410 H   0  0  0  0  0  0  0  0  0  0  0  0
  1  2  2  0
  2  3  1  0
  3  4  1  0
  4  5  1  0
  5  6  1  0
  6  7  1  0
  7  8  1  0
  8  9  1  0
  9 10  1  0
 10 11  1  0
  2 12  1  0
 12 13  2  0
 13 14  1  0
 14 15  2  0
 15 16  1  0
 16 17  1  0
 17 18  1  0
 18 19  2  0
 19 20  1  0
 20 21  2  0
 16 22  2  0
 11  6  1  0
 22 12  1  0
 21 17  1  0
  3 23  1  0
  4 24  1  0
  4 25  1  0
  5 26  1  0
  5 27  1  0
  6 28  1  0
  7 29  1  0
  7 30  1  0
  8 31  1  0
  8 32  1  0
  9 33  1  0
 10 34  1  0
 10 35  1  0
 11 36  1  0
 11 37  1  0
 13 38  1  0
 15 39  1  0
 18 40  1  0
 19 41  1  0
 21 42  1  0
M  END
>  <Energy>  (1206) 
1591.8192080852259

>  <compound_id>  (1206) 
17730

>  <target_id>  (1206) 
1

>  <reference_id>  (1206) 
9

>  <inspiration_ids>  (1206) 
[63, 9]

>  <energy_score>  (1206) 
1461.5667630541197

>  <distance_score>  (1206) 
13.665080882726347

>  <path>  (1206) 
/opt/xchem-fragalysis-2/maxwin/BulkDock/SCRATCH/511014/C17730-P9/C17730-P9.minimised.mol

>  <scratch_subdir>  (1206) 
/opt/xchem-fragalysis-2/maxwin/BulkDock/SCRATCH/511014/C17730-P9

>  <fragmenstein_runtime>  (1206) 
14.83437728881836

>  <fragmenstein_outcome>  (1206) 
too moved

>  <fragmenstein_mode>  (1206) 
expansion

>  <fragmenstein_error>  (1206) 


$$$$
C17732-P63
     RDKit          3D

 50 52  0  0  0  0  0  0  0  0999 V2000
    0.8619  -16.8421    7.4890 C   0  0  0  0  0  0  0  0  0  0  0  0
    0.0601  -17.7387    8.4342 C   0  0  0  0  0  0  0  0  0  0  0  0
    1.0827  -18.5773    9.2184 C   0  0  0  0  0  0  0  0  0  0  0  0
   -0.8646  -16.7814    9.3853 C   0  0  0  0  0  0  0  0  0  0  0  0
   -2.0403  -17.0214    9.1973 O   0  0  0  0  0  0  0  0  0  0  0  0
   -0.2071  -15.7129   10.2424 N   0  0  0  0  0  0  0  0  0  0  0  0
   -0.8161  -14.6177   10.9865 C   0  0  0  0  0  0  0  0  0  0  0  0
   -0.2245  -13.1859   11.2373 C   0  0  0  0  0  0  0  0  0  0  0  0
    0.3515  -12.6140   12.3633 C   0  0  0  0  0  0  0  0  0  0  0  0
    1.4908  -11.3971   11.4734 C   0  0  0  0  0  0  0  0  0  0  0  0
    2.7512  -11.5600   10.7861 C   0  0  0  0  0  0  0  0  0  0  0  0
    3.1543  -10.3421   10.2874 N   0  0  0  0  0  0  0  0  0  0  0  0
    2.0545   -9.5528   10.3211 C   0  0  0  0  0  0  0  0  0  0  0  0
    1.0763  -10.1518   10.9971 N   0  0  0  0  0  0  0  0  0  0  0  0
    0.4814  -14.2849   12.7070 C   0  0  0  0  0  0  0  0  0  0  0  0
    0.1963  -15.8214   11.6448 C   0  0  0  0  0  0  0  0  0  0  0  0
   -0.8811  -18.7032    7.3734 C   0  0  0  0  0  0  0  0  0  0  0  0
   -2.0920  -18.0186    6.6607 C   0  0  0  0  0  0  0  0  0  0  0  0
   -3.4948  -18.5619    6.9926 C   0  0  0  0  0  0  0  0  0  0  0  0
   -3.5607  -20.0196    6.8432 N   0  0  0  0  0  0  0  0  0  0  0  0
   -2.6904  -20.5769    7.8751 C   0  0  0  0  0  0  0  0  0  0  0  0
   -1.2086  -20.2008    7.6644 C   0  0  0  0  0  0  0  0  0  0  0  0
    1.5445  -17.4269    6.8603 H   0  0  0  0  0  0  0  0  0  0  0  0
    0.2214  -16.2706    6.8101 H   0  0  0  0  0  0  0  0  0  0  0  0
    1.4873  -16.1319    8.0411 H   0  0  0  0  0  0  0  0  0  0  0  0
    0.6750  -19.2914    9.9298 H   0  0  0  0  0  0  0  0  0  0  0  0
    1.7140  -19.1524    8.5306 H   0  0  0  0  0  0  0  0  0  0  0  0
    1.7464  -17.9231    9.7960 H   0  0  0  0  0  0  0  0  0  0  0  0
   -1.6240  -14.5652   10.2558 H   0  0  0  0  0  0  0  0  0  0  0  0
   -1.6826  -14.8628   11.5400 H   0  0  0  0  0  0  0  0  0  0  0  0
    0.8044  -13.3175   10.9906 H   0  0  0  0  0  0  0  0  0  0  0  0
   -0.6529  -12.2976   10.8063 H   0  0  0  0  0  0  0  0  0  0  0  0
   -0.3262  -12.1075   13.0174 H   0  0  0  0  0  0  0  0  0  0  0  0
    3.3640  -12.4299   10.5930 H   0  0  0  0  0  0  0  0  0  0  0  0
    4.0167  -10.1457    9.8001 H   0  0  0  0  0  0  0  0  0  0  0  0
    2.0044   -8.5706    9.8727 H   0  0  0  0  0  0  0  0  0  0  0  0
   -0.2079  -14.3402   13.5149 H   0  0  0  0  0  0  0  0  0  0  0  0
    1.4594  -14.4277   12.9663 H   0  0  0  0  0  0  0  0  0  0  0  0
    1.2315  -16.0073   11.3713 H   0  0  0  0  0  0  0  0  0  0  0  0
    0.1320  -16.8185   12.0614 H   0  0  0  0  0  0  0  0  0  0  0  0
   -0.1516  -18.8180    6.5531 H   0  0  0  0  0  0  0  0  0  0  0  0
   -2.0727  -16.9320    6.7926 H   0  0  0  0  0  0  0  0  0  0  0  0
   -1.9469  -18.1639    5.5796 H   0  0  0  0  0  0  0  0  0  0  0  0
   -3.8195  -18.2599    7.9918 H   0  0  0  0  0  0  0  0  0  0  0  0
   -4.2135  -18.1148    6.2961 H   0  0  0  0  0  0  0  0  0  0  0  0
   -3.1900  -20.2708    5.9292 H   0  0  0  0  0  0  0  0  0  0  0  0
   -2.7844  -21.6685    7.8649 H   0  0  0  0  0  0  0  0  0  0  0  0
   -3.0761  -20.2379    8.8339 H   0  0  0  0  0  0  0  0  0  0  0  0
   -0.8904  -20.7631    6.7721 H   0  0  0  0  0  0  0  0  0  0  0  0
   -0.5715  -20.5973    8.4514 H   0  0  0  0  0  0  0  0  0  0  0  0
  1  2  1  0
  2  3  1  0
  2  4  1  0
  4  5  2  0
  4  6  1  0
  6  7  1  0
  7  8  1  0
  8  9  1  0
  9 10  1  0
 10 11  2  0
 11 12  1  0
 12 13  1  0
 13 14  2  0
  9 15  1  0
 15 16  1  0
  2 17  1  0
 17 18  1  0
 18 19  1  0
 19 20  1  0
 20 21  1  0
 21 22  1  0
 16  6  1  0
 22 17  1  0
 14 10  1  0
  1 23  1  0
  1 24  1  0
  1 25  1  0
  3 26  1  0
  3 27  1  0
  3 28  1  0
  7 29  1  0
  7 30  1  0
  8 31  1  0
  8 32  1  0
  9 33  1  0
 11 34  1  0
 12 35  1  0
 13 36  1  0
 15 37  1  0
 15 38  1  0
 16 39  1  0
 16 40  1  0
 17 41  1  0
 18 42  1  0
 18 43  1  0
 19 44  1  0
 19 45  1  0
 20 46  1  0
 21 47  1  0
 21 48  1  0
 22 49  1  0
 22 50  1  0
M  END
>  <Energy>  (1207) 
387.76513639987303

>  <compound_id>  (1207) 
17732

>  <target_id>  (1207) 
1

>  <reference_id>  (1207) 
63

>  <inspiration_ids>  (1207) 
[63, 9]

>  <energy_score>  (1207) 
312.15814650446913

>  <distance_score>  (1207) 
14.325205641615513

>  <path>  (1207) 
/opt/xchem-fragalysis-2/maxwin/BulkDock/SCRATCH/511014/C17732-P63/C17732-P63.minimised.mol

>  <scratch_subdir>  (1207) 
/opt/xchem-fragalysis-2/maxwin/BulkDock/SCRATCH/511014/C17732-P63

>  <fragmenstein_runtime>  (1207) 
32.00375485420227

>  <fragmenstein_outcome>  (1207) 
too moved

>  <fragmenstein_mode>  (1207) 
expansion

>  <fragmenstein_error>  (1207) 


$$$$
C17732-P9
     RDKit          3D

 50 52  0  0  0  0  0  0  0  0999 V2000
    2.2749  -15.6646    8.7640 C   0  0  0  0  0  0  0  0  0  0  0  0
    1.1577  -16.0801    9.7485 C   0  0  0  0  0  0  0  0  0  0  0  0
    1.8543  -17.1887   10.6306 C   0  0  0  0  0  0  0  0  0  0  0  0
    0.4948  -14.9051   11.1933 C   0  0  0  0  0  0  0  0  0  0  0  0
   -0.1296  -15.5304   11.9481 O   0  0  0  0  0  0  0  0  0  0  0  0
    0.8574  -13.2495   11.4907 N   0  0  0  0  0  0  0  0  0  0  0  0
    0.6166  -12.4489   12.5883 C   0  0  0  0  0  0  0  0  0  0  0  0
    1.5608  -10.8868   12.1042 C   0  0  0  0  0  0  0  0  0  0  0  0
    2.2953  -10.6760   10.7370 C   0  0  0  0  0  0  0  0  0  0  0  0
    3.3832   -9.5667   10.5305 C   0  0  0  0  0  0  0  0  0  0  0  0
    3.2973   -8.3083    9.9589 C   0  0  0  0  0  0  0  0  0  0  0  0
    4.5300   -7.7316   10.1178 N   0  0  0  0  0  0  0  0  0  0  0  0
    5.3333   -8.6355   10.7451 C   0  0  0  0  0  0  0  0  0  0  0  0
    4.6898   -9.7565   10.9745 N   0  0  0  0  0  0  0  0  0  0  0  0
    0.9335  -10.2675   10.4154 C   0  0  0  0  0  0  0  0  0  0  0  0
   -0.0672  -11.7692   11.0328 C   0  0  0  0  0  0  0  0  0  0  0  0
    0.2670  -17.2558    8.7594 C   0  0  0  0  0  0  0  0  0  0  0  0
   -0.0610  -17.0430    7.2343 C   0  0  0  0  0  0  0  0  0  0  0  0
   -1.3071  -17.8893    6.8419 C   0  0  0  0  0  0  0  0  0  0  0  0
   -1.3554  -19.2312    7.4374 N   0  0  0  0  0  0  0  0  0  0  0  0
    0.0107  -19.7036    7.6886 C   0  0  0  0  0  0  0  0  0  0  0  0
    0.8385  -18.7619    8.6208 C   0  0  0  0  0  0  0  0  0  0  0  0
    2.9791  -14.9479    9.1798 H   0  0  0  0  0  0  0  0  0  0  0  0
    2.8740  -16.5189    8.4265 H   0  0  0  0  0  0  0  0  0  0  0  0
    1.8806  -15.2108    7.8492 H   0  0  0  0  0  0  0  0  0  0  0  0
    1.1387  -17.6963   11.2807 H   0  0  0  0  0  0  0  0  0  0  0  0
    2.7014  -16.8233   11.1871 H   0  0  0  0  0  0  0  0  0  0  0  0
    2.3981  -17.9385   10.0537 H   0  0  0  0  0  0  0  0  0  0  0  0
   -0.3702  -12.4115   13.0406 H   0  0  0  0  0  0  0  0  0  0  0  0
    1.1283  -12.9182   13.4021 H   0  0  0  0  0  0  0  0  0  0  0  0
    2.5944  -10.6271   12.2965 H   0  0  0  0  0  0  0  0  0  0  0  0
    1.8330  -10.9651   13.1520 H   0  0  0  0  0  0  0  0  0  0  0  0
    2.7088  -11.5935   10.3079 H   0  0  0  0  0  0  0  0  0  0  0  0
    2.4764   -7.7787    9.4986 H   0  0  0  0  0  0  0  0  0  0  0  0
    4.7979   -6.8057    9.8186 H   0  0  0  0  0  0  0  0  0  0  0  0
    6.3647   -8.4336   10.9988 H   0  0  0  0  0  0  0  0  0  0  0  0
    0.8311   -9.3471   10.9588 H   0  0  0  0  0  0  0  0  0  0  0  0
    0.7739   -9.9375    9.3810 H   0  0  0  0  0  0  0  0  0  0  0  0
   -0.6699  -11.2892   11.8368 H   0  0  0  0  0  0  0  0  0  0  0  0
   -0.9250  -11.9694   10.4668 H   0  0  0  0  0  0  0  0  0  0  0  0
   -0.6933  -17.2101    9.2568 H   0  0  0  0  0  0  0  0  0  0  0  0
    0.7997  -17.3605    6.6271 H   0  0  0  0  0  0  0  0  0  0  0  0
   -0.2159  -16.0192    6.9015 H   0  0  0  0  0  0  0  0  0  0  0  0
   -2.2170  -17.3497    7.1298 H   0  0  0  0  0  0  0  0  0  0  0  0
   -1.3335  -17.9840    5.7502 H   0  0  0  0  0  0  0  0  0  0  0  0
   -1.7490  -19.1088    8.3823 H   0  0  0  0  0  0  0  0  0  0  0  0
   -0.0309  -20.7041    8.1343 H   0  0  0  0  0  0  0  0  0  0  0  0
    0.5338  -19.8282    6.7318 H   0  0  0  0  0  0  0  0  0  0  0  0
    1.8474  -18.7110    8.1872 H   0  0  0  0  0  0  0  0  0  0  0  0
    0.9544  -19.2675    9.5849 H   0  0  0  0  0  0  0  0  0  0  0  0
  1  2  1  0
  2  3  1  0
  2  4  1  0
  4  5  2  0
  4  6  1  0
  6  7  1  0
  7  8  1  0
  8  9  1  0
  9 10  1  0
 10 11  2  0
 11 12  1  0
 12 13  1  0
 13 14  2  0
  9 15  1  0
 15 16  1  0
  2 17  1  0
 17 18  1  0
 18 19  1  0
 19 20  1  0
 20 21  1  0
 21 22  1  0
 16  6  1  0
 22 17  1  0
 14 10  1  0
  1 23  1  0
  1 24  1  0
  1 25  1  0
  3 26  1  0
  3 27  1  0
  3 28  1  0
  7 29  1  0
  7 30  1  0
  8 31  1  0
  8 32  1  0
  9 33  1  0
 11 34  1  0
 12 35  1  0
 13 36  1  0
 15 37  1  0
 15 38  1  0
 16 39  1  0
 16 40  1  0
 17 41  1  0
 18 42  1  0
 18 43  1  0
 19 44  1  0
 19 45  1  0
 20 46  1  0
 21 47  1  0
 21 48  1  0
 22 49  1  0
 22 50  1  0
M  END
>  <Energy>  (1208) 
542.39420378092757

>  <compound_id>  (1208) 
17732

>  <target_id>  (1208) 
1

>  <reference_id>  (1208) 
9

>  <inspiration_ids>  (1208) 
[63, 9]

>  <energy_score>  (1208) 
466.78721388552384

>  <distance_score>  (1208) 
14.226797868268683

>  <path>  (1208) 
/opt/xchem-fragalysis-2/maxwin/BulkDock/SCRATCH/511014/C17732-P9/C17732-P9.minimised.mol

>  <scratch_subdir>  (1208) 
/opt/xchem-fragalysis-2/maxwin/BulkDock/SCRATCH/511014/C17732-P9

>  <fragmenstein_runtime>  (1208) 
36.247802734375

>  <fragmenstein_outcome>  (1208) 
too moved

>  <fragmenstein_mode>  (1208) 
expansion

>  <fragmenstein_error>  (1208) 


$$$$
C17733-P63
     RDKit          3D

 50 52  0  0  0  0  0  0  0  0999 V2000
   -8.2227  -17.0641   13.8808 C   0  0  0  0  0  0  0  0  0  0  0  0
   -6.9698  -17.6585   12.7199 C   0  0  0  0  0  0  0  0  0  0  0  0
   -5.9530  -18.8179   12.8107 C   0  0  0  0  0  0  0  0  0  0  0  0
   -5.4576  -16.3576   13.3575 C   0  0  0  0  0  0  0  0  0  0  0  0
   -4.9683  -16.7998   14.3109 O   0  0  0  0  0  0  0  0  0  0  0  0
   -4.4377  -14.7961   12.7962 N   0  0  0  0  0  0  0  0  0  0  0  0
   -3.0786  -13.9800   13.5521 C   0  0  0  0  0  0  0  0  0  0  0  0
   -0.9187  -13.7071   13.5492 C   0  0  0  0  0  0  0  0  0  0  0  0
   -0.2099  -13.6856   11.9144 C   0  0  0  0  0  0  0  0  0  0  0  0
    0.8061  -12.6015   11.4293 N   0  0  0  0  0  0  0  0  0  0  0  0
    2.1986  -12.4310   10.7637 C   0  0  0  0  0  0  0  0  0  0  0  0
    2.5498  -11.0979   10.8548 C   0  0  0  0  0  0  0  0  0  0  0  0
    1.4073  -10.4269   11.1576 N   0  0  0  0  0  0  0  0  0  0  0  0
    0.5239  -11.2724   11.6402 C   0  0  0  0  0  0  0  0  0  0  0  0
   -1.0473  -14.9137   11.3361 C   0  0  0  0  0  0  0  0  0  0  0  0
   -2.9517  -15.0316   11.5127 C   0  0  0  0  0  0  0  0  0  0  0  0
   -7.9816  -19.3200   11.9878 C   0  0  0  0  0  0  0  0  0  0  0  0
   -9.5659  -19.3959   12.0688 C   0  0  0  0  0  0  0  0  0  0  0  0
  -10.4230  -20.5729   12.8938 C   0  0  0  0  0  0  0  0  0  0  0  0
  -10.3238  -21.9115   12.3323 N   0  0  0  0  0  0  0  0  0  0  0  0
   -8.9722  -22.2711   12.6199 C   0  0  0  0  0  0  0  0  0  0  0  0
   -7.9987  -21.1486   12.1353 C   0  0  0  0  0  0  0  0  0  0  0  0
   -8.5798  -17.5161   14.8002 H   0  0  0  0  0  0  0  0  0  0  0  0
   -9.1541  -16.8570   13.3417 H   0  0  0  0  0  0  0  0  0  0  0  0
   -7.8267  -16.1576   14.3690 H   0  0  0  0  0  0  0  0  0  0  0  0
   -5.7212  -18.6083   13.8038 H   0  0  0  0  0  0  0  0  0  0  0  0
   -6.2502  -19.8067   12.5385 H   0  0  0  0  0  0  0  0  0  0  0  0
   -4.9590  -19.1644   12.5002 H   0  0  0  0  0  0  0  0  0  0  0  0
   -3.7817  -13.2252   13.5803 H   0  0  0  0  0  0  0  0  0  0  0  0
   -2.7455  -14.6959   14.6476 H   0  0  0  0  0  0  0  0  0  0  0  0
   -0.6495  -12.6702   13.7236 H   0  0  0  0  0  0  0  0  0  0  0  0
   -0.2026  -14.4610   13.6996 H   0  0  0  0  0  0  0  0  0  0  0  0
   -0.8162  -12.9960   11.4331 H   0  0  0  0  0  0  0  0  0  0  0  0
    2.7468  -13.1922   10.2343 H   0  0  0  0  0  0  0  0  0  0  0  0
    3.4652  -10.6174   10.5419 H   0  0  0  0  0  0  0  0  0  0  0  0
   -0.4209  -11.0334   12.0890 H   0  0  0  0  0  0  0  0  0  0  0  0
   -0.9617  -15.1091   10.3083 H   0  0  0  0  0  0  0  0  0  0  0  0
   -0.4770  -15.8003   11.6367 H   0  0  0  0  0  0  0  0  0  0  0  0
   -3.2208  -15.7921   10.8221 H   0  0  0  0  0  0  0  0  0  0  0  0
   -3.0590  -14.4866   10.5885 H   0  0  0  0  0  0  0  0  0  0  0  0
   -7.5749  -19.4135   11.0154 H   0  0  0  0  0  0  0  0  0  0  0  0
   -9.7559  -19.5483   11.0256 H   0  0  0  0  0  0  0  0  0  0  0  0
   -9.9171  -18.4377   12.4290 H   0  0  0  0  0  0  0  0  0  0  0  0
  -11.4467  -20.3006   13.0404 H   0  0  0  0  0  0  0  0  0  0  0  0
  -10.2269  -20.6469   13.9601 H   0  0  0  0  0  0  0  0  0  0  0  0
  -10.9464  -22.5391   12.8335 H   0  0  0  0  0  0  0  0  0  0  0  0
   -8.8639  -22.4705   13.6944 H   0  0  0  0  0  0  0  0  0  0  0  0
   -8.7310  -23.2083   12.1039 H   0  0  0  0  0  0  0  0  0  0  0  0
   -8.2485  -21.3571   11.1021 H   0  0  0  0  0  0  0  0  0  0  0  0
   -7.1312  -21.4295   12.7329 H   0  0  0  0  0  0  0  0  0  0  0  0
  1  2  1  0
  2  3  1  0
  2  4  1  0
  4  5  2  0
  4  6  1  0
  6  7  1  0
  7  8  1  0
  8  9  1  0
  9 10  1  0
 10 11  1  0
 11 12  2  0
 12 13  1  0
 13 14  2  0
  9 15  1  0
 15 16  1  0
  2 17  1  0
 17 18  1  0
 18 19  1  0
 19 20  1  0
 20 21  1  0
 21 22  1  0
 16  6  1  0
 22 17  1  0
 14 10  1  0
  1 23  1  0
  1 24  1  0
  1 25  1  0
  3 26  1  0
  3 27  1  0
  3 28  1  0
  7 29  1  0
  7 30  1  0
  8 31  1  0
  8 32  1  0
  9 33  1  0
 11 34  1  0
 12 35  1  0
 14 36  1  0
 15 37  1  0
 15 38  1  0
 16 39  1  0
 16 40  1  0
 17 41  1  0
 18 42  1  0
 18 43  1  0
 19 44  1  0
 19 45  1  0
 20 46  1  0
 21 47  1  0
 21 48  1  0
 22 49  1  0
 22 50  1  0
M  END
>  <Energy>  (1209) 
1121.8760836768636

>  <compound_id>  (1209) 
17733

>  <target_id>  (1209) 
1

>  <reference_id>  (1209) 
63

>  <inspiration_ids>  (1209) 
[63, 9]

>  <energy_score>  (1209) 
1057.7254460705112

>  <distance_score>  (1209) 
10.600581051155636

>  <path>  (1209) 
/opt/xchem-fragalysis-2/maxwin/BulkDock/SCRATCH/511014/C17733-P63/C17733-P63.minimised.mol

>  <scratch_subdir>  (1209) 
/opt/xchem-fragalysis-2/maxwin/BulkDock/SCRATCH/511014/C17733-P63

>  <fragmenstein_runtime>  (1209) 
28.535879373550415

>  <fragmenstein_outcome>  (1209) 
too moved

>  <fragmenstein_mode>  (1209) 
expansion

>  <fragmenstein_error>  (1209) 


$$$$
C17733-P9
     RDKit          3D

 50 52  0  0  0  0  0  0  0  0999 V2000
   -4.0365  -14.7447   13.1014 C   0  0  0  0  0  0  0  0  0  0  0  0
   -3.1662  -15.8907   14.6012 C   0  0  0  0  0  0  0  0  0  0  0  0
   -3.7911  -16.0263   16.1263 C   0  0  0  0  0  0  0  0  0  0  0  0
   -1.6252  -14.4564   14.6943 C   0  0  0  0  0  0  0  0  0  0  0  0
   -1.1868  -14.1031   15.8113 O   0  0  0  0  0  0  0  0  0  0  0  0
   -1.0014  -13.5757   13.2311 N   0  0  0  0  0  0  0  0  0  0  0  0
   -0.0521  -12.3105   13.0828 C   0  0  0  0  0  0  0  0  0  0  0  0
    0.1383  -11.3732   11.9057 C   0  0  0  0  0  0  0  0  0  0  0  0
    1.4048  -11.6554   11.2012 C   0  0  0  0  0  0  0  0  0  0  0  0
    2.7990  -11.2820   10.6306 N   0  0  0  0  0  0  0  0  0  0  0  0
    3.4011  -11.8882    9.5304 C   0  0  0  0  0  0  0  0  0  0  0  0
    4.7282  -11.5385    9.4698 C   0  0  0  0  0  0  0  0  0  0  0  0
    4.9932  -10.5863   10.3843 N   0  0  0  0  0  0  0  0  0  0  0  0
    3.8324  -10.3788   10.9744 C   0  0  0  0  0  0  0  0  0  0  0  0
    0.7507  -13.3095   11.3958 C   0  0  0  0  0  0  0  0  0  0  0  0
    0.1652  -14.0873   12.5658 C   0  0  0  0  0  0  0  0  0  0  0  0
   -3.8587  -17.6199   14.1579 C   0  0  0  0  0  0  0  0  0  0  0  0
   -5.7019  -17.1614   13.7237 C   0  0  0  0  0  0  0  0  0  0  0  0
   -6.5613  -17.9888   12.5867 C   0  0  0  0  0  0  0  0  0  0  0  0
   -6.6238  -19.4200   12.1628 N   0  0  0  0  0  0  0  0  0  0  0  0
   -5.3560  -20.0988   12.1020 C   0  0  0  0  0  0  0  0  0  0  0  0
   -4.1998  -19.3164   12.8866 C   0  0  0  0  0  0  0  0  0  0  0  0
   -3.8694  -13.7542   13.4021 H   0  0  0  0  0  0  0  0  0  0  0  0
   -5.1217  -14.7374   12.9444 H   0  0  0  0  0  0  0  0  0  0  0  0
   -3.5031  -14.7779   12.1196 H   0  0  0  0  0  0  0  0  0  0  0  0
   -3.5314  -15.0931   16.6245 H   0  0  0  0  0  0  0  0  0  0  0  0
   -3.4829  -16.8491   16.7771 H   0  0  0  0  0  0  0  0  0  0  0  0
   -4.8417  -16.2339   16.1566 H   0  0  0  0  0  0  0  0  0  0  0  0
   -0.7266  -11.6459   13.5747 H   0  0  0  0  0  0  0  0  0  0  0  0
    0.9079  -12.3120   13.6154 H   0  0  0  0  0  0  0  0  0  0  0  0
   -0.7099  -11.5245   11.2605 H   0  0  0  0  0  0  0  0  0  0  0  0
    0.1913  -10.3394   12.1277 H   0  0  0  0  0  0  0  0  0  0  0  0
    1.0671  -10.7361   10.6602 H   0  0  0  0  0  0  0  0  0  0  0  0
    2.8264  -12.5322    8.9087 H   0  0  0  0  0  0  0  0  0  0  0  0
    5.4778  -11.8897    8.7733 H   0  0  0  0  0  0  0  0  0  0  0  0
    3.7529   -9.6346   11.7421 H   0  0  0  0  0  0  0  0  0  0  0  0
    1.3890  -14.1280   11.2139 H   0  0  0  0  0  0  0  0  0  0  0  0
   -0.2484  -13.3152   10.9722 H   0  0  0  0  0  0  0  0  0  0  0  0
    1.0026  -14.0606   13.1322 H   0  0  0  0  0  0  0  0  0  0  0  0
   -0.0645  -15.0623   12.1377 H   0  0  0  0  0  0  0  0  0  0  0  0
   -3.5700  -17.9171   15.1715 H   0  0  0  0  0  0  0  0  0  0  0  0
   -5.6236  -16.2847   13.1680 H   0  0  0  0  0  0  0  0  0  0  0  0
   -6.2155  -16.5286   14.4019 H   0  0  0  0  0  0  0  0  0  0  0  0
   -7.5617  -17.6283   12.8438 H   0  0  0  0  0  0  0  0  0  0  0  0
   -6.4441  -17.5393   11.6374 H   0  0  0  0  0  0  0  0  0  0  0  0
   -7.0827  -19.5318   11.2670 H   0  0  0  0  0  0  0  0  0  0  0  0
   -5.0311  -20.4859   11.1275 H   0  0  0  0  0  0  0  0  0  0  0  0
   -5.5751  -21.0744   12.5192 H   0  0  0  0  0  0  0  0  0  0  0  0
   -4.9830  -19.1594   13.5491 H   0  0  0  0  0  0  0  0  0  0  0  0
   -3.5670  -20.2385   12.9356 H   0  0  0  0  0  0  0  0  0  0  0  0
  1  2  1  0
  2  3  1  0
  2  4  1  0
  4  5  2  0
  4  6  1  0
  6  7  1  0
  7  8  1  0
  8  9  1  0
  9 10  1  0
 10 11  1  0
 11 12  2  0
 12 13  1  0
 13 14  2  0
  9 15  1  0
 15 16  1  0
  2 17  1  0
 17 18  1  0
 18 19  1  0
 19 20  1  0
 20 21  1  0
 21 22  1  0
 16  6  1  0
 22 17  1  0
 14 10  1  0
  1 23  1  0
  1 24  1  0
  1 25  1  0
  3 26  1  0
  3 27  1  0
  3 28  1  0
  7 29  1  0
  7 30  1  0
  8 31  1  0
  8 32  1  0
  9 33  1  0
 11 34  1  0
 12 35  1  0
 14 36  1  0
 15 37  1  0
 15 38  1  0
 16 39  1  0
 16 40  1  0
 17 41  1  0
 18 42  1  0
 18 43  1  0
 19 44  1  0
 19 45  1  0
 20 46  1  0
 21 47  1  0
 21 48  1  0
 22 49  1  0
 22 50  1  0
M  END
>  <Energy>  (1210) 
917.22689137361704

>  <compound_id>  (1210) 
17733

>  <target_id>  (1210) 
1

>  <reference_id>  (1210) 
9

>  <inspiration_ids>  (1210) 
[63, 9]

>  <energy_score>  (1210) 
853.0762537672506

>  <distance_score>  (1210) 
11.879571215341937

>  <path>  (1210) 
/opt/xchem-fragalysis-2/maxwin/BulkDock/SCRATCH/511014/C17733-P9/C17733-P9.minimised.mol

>  <scratch_subdir>  (1210) 
/opt/xchem-fragalysis-2/maxwin/BulkDock/SCRATCH/511014/C17733-P9

>  <fragmenstein_runtime>  (1210) 
19.562207221984863

>  <fragmenstein_outcome>  (1210) 
too moved

>  <fragmenstein_mode>  (1210) 
expansion

>  <fragmenstein_error>  (1210) 


$$$$
C17734-P63
     RDKit          3D

 33 34  0  0  0  0  0  0  0  0999 V2000
   -5.5832  -27.4392   11.2482 C   0  0  0  0  0  0  0  0  0  0  0  0
   -6.7376  -27.0297   10.5130 O   0  0  0  0  0  0  0  0  0  0  0  0
   -7.9222  -27.2720   11.1394 C   0  0  0  0  0  0  0  0  0  0  0  0
   -8.0459  -27.8177   12.2304 O   0  0  0  0  0  0  0  0  0  0  0  0
   -9.0815  -26.7945   10.3045 C   0  0  0  0  0  0  0  0  0  0  0  0
   -9.5652  -25.4779   10.8052 C   0  0  0  0  0  0  0  0  0  0  0  0
   -9.2412  -24.3235   10.2582 N   0  0  0  0  0  0  0  0  0  0  0  0
   -9.8813  -23.3652   10.9923 C   0  0  0  0  0  0  0  0  0  0  0  0
  -10.6729  -23.9429   11.9511 C   0  0  0  0  0  0  0  0  0  0  0  0
  -10.4367  -25.2878   11.8581 N   0  0  0  0  0  0  0  0  0  0  0  0
  -10.9788  -26.3055   12.7508 C   0  0  0  0  0  0  0  0  0  0  0  0
  -12.5079  -26.4441   12.6627 C   0  0  0  0  0  0  0  0  0  0  0  0
  -13.2199  -25.8688   13.8789 C   0  0  0  0  0  0  0  0  0  0  0  0
  -12.7243  -26.3602   15.1603 N   0  0  0  0  0  0  0  0  0  0  0  0
  -11.3661  -26.8931   15.1481 C   0  0  0  0  0  0  0  0  0  0  0  0
  -10.4659  -26.1388   14.1843 C   0  0  0  0  0  0  0  0  0  0  0  0
   -5.5075  -26.8825   12.1862 H   0  0  0  0  0  0  0  0  0  0  0  0
   -4.7003  -27.2176   10.6423 H   0  0  0  0  0  0  0  0  0  0  0  0
   -5.6115  -28.5167   11.4378 H   0  0  0  0  0  0  0  0  0  0  0  0
   -9.8660  -27.5578   10.3101 H   0  0  0  0  0  0  0  0  0  0  0  0
   -8.7628  -26.7050    9.2590 H   0  0  0  0  0  0  0  0  0  0  0  0
   -9.7329  -22.3119   10.7938 H   0  0  0  0  0  0  0  0  0  0  0  0
  -11.3089  -23.5094   12.7088 H   0  0  0  0  0  0  0  0  0  0  0  0
  -10.5872  -27.2621   12.3889 H   0  0  0  0  0  0  0  0  0  0  0  0
  -12.7568  -27.5126   12.5994 H   0  0  0  0  0  0  0  0  0  0  0  0
  -12.9017  -25.9887   11.7460 H   0  0  0  0  0  0  0  0  0  0  0  0
  -13.1329  -24.7779   13.8604 H   0  0  0  0  0  0  0  0  0  0  0  0
  -14.2930  -26.0812   13.8073 H   0  0  0  0  0  0  0  0  0  0  0  0
  -13.3643  -27.0443   15.5636 H   0  0  0  0  0  0  0  0  0  0  0  0
  -10.9604  -26.8321   16.1617 H   0  0  0  0  0  0  0  0  0  0  0  0
  -11.3894  -27.9564   14.8793 H   0  0  0  0  0  0  0  0  0  0  0  0
   -9.4404  -26.5190   14.2592 H   0  0  0  0  0  0  0  0  0  0  0  0
  -10.4165  -25.0831   14.4704 H   0  0  0  0  0  0  0  0  0  0  0  0
  1  2  1  0
  2  3  1  0
  3  4  2  0
  3  5  1  0
  5  6  1  0
  6  7  2  0
  7  8  1  0
  8  9  2  0
  9 10  1  0
 10 11  1  0
 11 12  1  0
 12 13  1  0
 13 14  1  0
 14 15  1  0
 15 16  1  0
 10  6  1  0
 16 11  1  0
  1 17  1  0
  1 18  1  0
  1 19  1  0
  5 20  1  0
  5 21  1  0
  8 22  1  0
  9 23  1  0
 11 24  1  0
 12 25  1  0
 12 26  1  0
 13 27  1  0
 13 28  1  0
 14 29  1  0
 15 30  1  0
 15 31  1  0
 16 32  1  0
 16 33  1  0
M  END
>  <Energy>  (1211) 
3.7774976820788151

>  <compound_id>  (1211) 
17734

>  <target_id>  (1211) 
1

>  <reference_id>  (1211) 
63

>  <inspiration_ids>  (1211) 
[63, 9]

>  <energy_score>  (1211) 
-44.21199127284521

>  <distance_score>  (1211) 
16.887451620607564

>  <path>  (1211) 
/opt/xchem-fragalysis-2/maxwin/BulkDock/SCRATCH/511014/C17734-P63/C17734-P63.minimised.mol

>  <scratch_subdir>  (1211) 
/opt/xchem-fragalysis-2/maxwin/BulkDock/SCRATCH/511014/C17734-P63

>  <fragmenstein_runtime>  (1211) 
13.764187335968018

>  <fragmenstein_outcome>  (1211) 
too moved

>  <fragmenstein_mode>  (1211) 
expansion

>  <fragmenstein_error>  (1211) 


$$$$
C17734-P9
     RDKit          3D

 33 34  0  0  0  0  0  0  0  0999 V2000
   -7.6536  -30.6310   14.3301 C   0  0  0  0  0  0  0  0  0  0  0  0
   -8.7700  -30.2241   13.5355 O   0  0  0  0  0  0  0  0  0  0  0  0
   -8.8175  -28.8749   13.3090 C   0  0  0  0  0  0  0  0  0  0  0  0
   -8.0377  -28.0701   13.7980 O   0  0  0  0  0  0  0  0  0  0  0  0
  -10.0230  -28.5515   12.4567 C   0  0  0  0  0  0  0  0  0  0  0  0
   -9.8720  -27.2203   11.8000 C   0  0  0  0  0  0  0  0  0  0  0  0
   -9.1699  -27.0562   10.6958 N   0  0  0  0  0  0  0  0  0  0  0  0
   -9.2292  -25.7300   10.4029 C   0  0  0  0  0  0  0  0  0  0  0  0
  -10.0282  -25.0736   11.3068 C   0  0  0  0  0  0  0  0  0  0  0  0
  -10.4477  -26.0321   12.1887 N   0  0  0  0  0  0  0  0  0  0  0  0
  -11.3056  -25.7287   13.3220 C   0  0  0  0  0  0  0  0  0  0  0  0
  -12.6977  -26.3533   13.2140 C   0  0  0  0  0  0  0  0  0  0  0  0
  -13.4548  -26.1324   14.5157 C   0  0  0  0  0  0  0  0  0  0  0  0
  -12.7820  -26.6853   15.6862 N   0  0  0  0  0  0  0  0  0  0  0  0
  -11.3582  -26.9559   15.5450 C   0  0  0  0  0  0  0  0  0  0  0  0
  -10.6190  -25.9604   14.6675 C   0  0  0  0  0  0  0  0  0  0  0  0
   -6.7138  -30.3719   13.8323 H   0  0  0  0  0  0  0  0  0  0  0  0
   -7.6972  -31.7177   14.4429 H   0  0  0  0  0  0  0  0  0  0  0  0
   -7.7054  -30.1778   15.3239 H   0  0  0  0  0  0  0  0  0  0  0  0
  -10.9167  -28.6267   13.0726 H   0  0  0  0  0  0  0  0  0  0  0  0
  -10.0993  -29.3096   11.6676 H   0  0  0  0  0  0  0  0  0  0  0  0
   -8.6912  -25.3282    9.5526 H   0  0  0  0  0  0  0  0  0  0  0  0
  -10.3150  -24.0392   11.4239 H   0  0  0  0  0  0  0  0  0  0  0  0
  -11.4688  -24.6411   13.2655 H   0  0  0  0  0  0  0  0  0  0  0  0
  -12.6565  -27.4237   12.9909 H   0  0  0  0  0  0  0  0  0  0  0  0
  -13.2469  -25.8942   12.3824 H   0  0  0  0  0  0  0  0  0  0  0  0
  -14.4534  -26.5764   14.4422 H   0  0  0  0  0  0  0  0  0  0  0  0
  -13.6041  -25.0562   14.6630 H   0  0  0  0  0  0  0  0  0  0  0  0
  -12.9804  -26.1188   16.5103 H   0  0  0  0  0  0  0  0  0  0  0  0
  -10.9002  -26.9784   16.5405 H   0  0  0  0  0  0  0  0  0  0  0  0
  -11.2385  -27.9683   15.1479 H   0  0  0  0  0  0  0  0  0  0  0  0
  -10.5670  -24.9993   15.1825 H   0  0  0  0  0  0  0  0  0  0  0  0
   -9.5777  -26.2708   14.5556 H   0  0  0  0  0  0  0  0  0  0  0  0
  1  2  1  0
  2  3  1  0
  3  4  2  0
  3  5  1  0
  5  6  1  0
  6  7  2  0
  7  8  1  0
  8  9  2  0
  9 10  1  0
 10 11  1  0
 11 12  1  0
 12 13  1  0
 13 14  1  0
 14 15  1  0
 15 16  1  0
 10  6  1  0
 16 11  1  0
  1 17  1  0
  1 18  1  0
  1 19  1  0
  5 20  1  0
  5 21  1  0
  8 22  1  0
  9 23  1  0
 11 24  1  0
 12 25  1  0
 12 26  1  0
 13 27  1  0
 13 28  1  0
 14 29  1  0
 15 30  1  0
 15 31  1  0
 16 32  1  0
 16 33  1  0
M  END
>  <Energy>  (1212) 
7.5654664468831472

>  <compound_id>  (1212) 
17734

>  <target_id>  (1212) 
1

>  <reference_id>  (1212) 
9

>  <inspiration_ids>  (1212) 
[63, 9]

>  <energy_score>  (1212) 
-40.42402250804059

>  <distance_score>  (1212) 
17.995392808724258

>  <path>  (1212) 
/opt/xchem-fragalysis-2/maxwin/BulkDock/SCRATCH/511014/C17734-P9/C17734-P9.minimised.mol

>  <scratch_subdir>  (1212) 
/opt/xchem-fragalysis-2/maxwin/BulkDock/SCRATCH/511014/C17734-P9

>  <fragmenstein_runtime>  (1212) 
10.172574281692505

>  <fragmenstein_outcome>  (1212) 
too moved

>  <fragmenstein_mode>  (1212) 
expansion

>  <fragmenstein_error>  (1212) 


$$$$
C17735-P63
     RDKit          3D

 29 31  0  0  0  0  0  0  0  0999 V2000
    3.2341  -16.2243    9.0820 C   0  0  0  0  0  0  0  0  0  0  0  0
    3.8745  -17.1854    9.8258 C   0  0  0  0  0  0  0  0  0  0  0  0
    2.8669  -17.9829   10.3158 N   0  0  0  0  0  0  0  0  0  0  0  0
    1.6761  -17.5869    9.7419 C   0  0  0  0  0  0  0  0  0  0  0  0
    0.4360  -18.3762    9.7769 C   0  0  0  0  0  0  0  0  0  0  0  0
   -0.7148  -17.9745    9.2594 N   0  0  0  0  0  0  0  0  0  0  0  0
   -1.6399  -19.0096    9.3793 N   0  0  0  0  0  0  0  0  0  0  0  0
   -1.0174  -20.0151    9.9555 C   0  0  0  0  0  0  0  0  0  0  0  0
   -1.4834  -21.4477   10.0991 C   0  0  0  0  0  0  0  0  0  0  0  0
   -3.0159  -21.5980   10.0927 C   0  0  0  0  0  0  0  0  0  0  0  0
   -3.3762  -23.0659   10.3264 C   0  0  0  0  0  0  0  0  0  0  0  0
   -2.9362  -23.5846   11.6226 N   0  0  0  0  0  0  0  0  0  0  0  0
   -1.8836  -22.7752   12.2472 C   0  0  0  0  0  0  0  0  0  0  0  0
   -0.8540  -22.2212   11.2699 C   0  0  0  0  0  0  0  0  0  0  0  0
    0.3013  -19.6896   10.2560 O   0  0  0  0  0  0  0  0  0  0  0  0
    1.8783  -16.4544    9.0777 N   0  0  0  0  0  0  0  0  0  0  0  0
    3.6628  -15.3821    8.5540 H   0  0  0  0  0  0  0  0  0  0  0  0
    4.9129  -17.3559   10.0699 H   0  0  0  0  0  0  0  0  0  0  0  0
    2.9784  -18.8009   10.8987 H   0  0  0  0  0  0  0  0  0  0  0  0
   -1.1191  -21.9351    9.1816 H   0  0  0  0  0  0  0  0  0  0  0  0
   -3.4705  -20.9560   10.8575 H   0  0  0  0  0  0  0  0  0  0  0  0
   -3.4190  -21.2700    9.1267 H   0  0  0  0  0  0  0  0  0  0  0  0
   -2.9051  -23.6749    9.5447 H   0  0  0  0  0  0  0  0  0  0  0  0
   -4.4483  -23.2354   10.2161 H   0  0  0  0  0  0  0  0  0  0  0  0
   -3.7339  -23.4765   12.2677 H   0  0  0  0  0  0  0  0  0  0  0  0
   -2.3188  -21.9254   12.7855 H   0  0  0  0  0  0  0  0  0  0  0  0
   -1.3796  -23.3889   13.0021 H   0  0  0  0  0  0  0  0  0  0  0  0
   -0.2745  -23.0609   10.8625 H   0  0  0  0  0  0  0  0  0  0  0  0
   -0.1373  -21.6059   11.8263 H   0  0  0  0  0  0  0  0  0  0  0  0
  1  2  2  0
  2  3  1  0
  3  4  1  0
  4  5  1  0
  5  6  2  0
  6  7  1  0
  7  8  2  0
  8  9  1  0
  9 10  1  0
 10 11  1  0
 11 12  1  0
 12 13  1  0
 13 14  1  0
  8 15  1  0
  4 16  2  0
 16  1  1  0
 15  5  1  0
 14  9  1  0
  1 17  1  0
  2 18  1  0
  3 19  1  0
  9 20  1  0
 10 21  1  0
 10 22  1  0
 11 23  1  0
 11 24  1  0
 12 25  1  0
 13 26  1  0
 13 27  1  0
 14 28  1  0
 14 29  1  0
M  END
>  <Energy>  (1213) 
29.013727455030548

>  <compound_id>  (1213) 
17735

>  <target_id>  (1213) 
1

>  <reference_id>  (1213) 
63

>  <inspiration_ids>  (1213) 
[63, 9]

>  <energy_score>  (1213) 
-24.076234193363774

>  <distance_score>  (1213) 
14.360330279220703

>  <path>  (1213) 
/opt/xchem-fragalysis-2/maxwin/BulkDock/SCRATCH/511014/C17735-P63/C17735-P63.minimised.mol

>  <scratch_subdir>  (1213) 
/opt/xchem-fragalysis-2/maxwin/BulkDock/SCRATCH/511014/C17735-P63

>  <fragmenstein_runtime>  (1213) 
7.331605434417725

>  <fragmenstein_outcome>  (1213) 
too moved

>  <fragmenstein_mode>  (1213) 
expansion

>  <fragmenstein_error>  (1213) 


$$$$
C17735-P9
     RDKit          3D

 29 31  0  0  0  0  0  0  0  0999 V2000
    0.6918  -12.0413   11.5961 C   0  0  0  0  0  0  0  0  0  0  0  0
   -0.2218  -12.0679   12.5295 C   0  0  0  0  0  0  0  0  0  0  0  0
   -0.2817  -13.3835   12.8813 N   0  0  0  0  0  0  0  0  0  0  0  0
   -0.0295  -14.1187   11.7711 C   0  0  0  0  0  0  0  0  0  0  0  0
   -0.7845  -15.2777   11.0144 C   0  0  0  0  0  0  0  0  0  0  0  0
   -0.2410  -16.4078   10.5271 N   0  0  0  0  0  0  0  0  0  0  0  0
   -1.2124  -17.1195    9.6586 N   0  0  0  0  0  0  0  0  0  0  0  0
   -2.3646  -16.4338    9.6303 C   0  0  0  0  0  0  0  0  0  0  0  0
   -3.7931  -16.9907    9.1772 C   0  0  0  0  0  0  0  0  0  0  0  0
   -4.3474  -16.4114    7.8875 C   0  0  0  0  0  0  0  0  0  0  0  0
   -5.5746  -17.2096    7.3952 C   0  0  0  0  0  0  0  0  0  0  0  0
   -6.4712  -17.7191    8.4326 N   0  0  0  0  0  0  0  0  0  0  0  0
   -6.3743  -16.9636    9.6596 C   0  0  0  0  0  0  0  0  0  0  0  0
   -4.9632  -17.0580   10.2248 C   0  0  0  0  0  0  0  0  0  0  0  0
   -2.1981  -15.2609   10.4850 O   0  0  0  0  0  0  0  0  0  0  0  0
    0.9862  -13.3620   11.3770 N   0  0  0  0  0  0  0  0  0  0  0  0
    1.2152  -11.1696   11.2223 H   0  0  0  0  0  0  0  0  0  0  0  0
   -0.8055  -11.2897   12.9566 H   0  0  0  0  0  0  0  0  0  0  0  0
   -0.8321  -13.6227   13.6790 H   0  0  0  0  0  0  0  0  0  0  0  0
   -3.5588  -18.0441    8.9504 H   0  0  0  0  0  0  0  0  0  0  0  0
   -3.5844  -16.4185    7.1007 H   0  0  0  0  0  0  0  0  0  0  0  0
   -4.6296  -15.3629    8.0482 H   0  0  0  0  0  0  0  0  0  0  0  0
   -6.1408  -16.5711    6.7061 H   0  0  0  0  0  0  0  0  0  0  0  0
   -5.2280  -18.0665    6.8062 H   0  0  0  0  0  0  0  0  0  0  0  0
   -7.4334  -17.6956    8.0907 H   0  0  0  0  0  0  0  0  0  0  0  0
   -7.0864  -17.3552   10.3947 H   0  0  0  0  0  0  0  0  0  0  0  0
   -6.6503  -15.9160    9.4850 H   0  0  0  0  0  0  0  0  0  0  0  0
   -4.8789  -18.0038   10.7767 H   0  0  0  0  0  0  0  0  0  0  0  0
   -4.9112  -16.2453   10.9525 H   0  0  0  0  0  0  0  0  0  0  0  0
  1  2  2  0
  2  3  1  0
  3  4  1  0
  4  5  1  0
  5  6  2  0
  6  7  1  0
  7  8  2  0
  8  9  1  0
  9 10  1  0
 10 11  1  0
 11 12  1  0
 12 13  1  0
 13 14  1  0
  8 15  1  0
  4 16  2  0
 16  1  1  0
 15  5  1  0
 14  9  1  0
  1 17  1  0
  2 18  1  0
  3 19  1  0
  9 20  1  0
 10 21  1  0
 10 22  1  0
 11 23  1  0
 11 24  1  0
 12 25  1  0
 13 26  1  0
 13 27  1  0
 14 28  1  0
 14 29  1  0
M  END
>  <Energy>  (1214) 
97.626372448139364

>  <compound_id>  (1214) 
17735

>  <target_id>  (1214) 
1

>  <reference_id>  (1214) 
9

>  <inspiration_ids>  (1214) 
[63, 9]

>  <energy_score>  (1214) 
44.536410799746704

>  <distance_score>  (1214) 
14.260190986621422

>  <path>  (1214) 
/opt/xchem-fragalysis-2/maxwin/BulkDock/SCRATCH/511014/C17735-P9/C17735-P9.minimised.mol

>  <scratch_subdir>  (1214) 
/opt/xchem-fragalysis-2/maxwin/BulkDock/SCRATCH/511014/C17735-P9

>  <fragmenstein_runtime>  (1214) 
5.73604416847229

>  <fragmenstein_outcome>  (1214) 
too moved

>  <fragmenstein_mode>  (1214) 
expansion

>  <fragmenstein_error>  (1214) 


$$$$
C17736-P63
     RDKit          3D

 33 35  0  0  0  0  0  0  0  0999 V2000
    2.9226  -14.8585    6.9113 C   0  0  0  0  0  0  0  0  0  0  0  0
    2.5672  -15.8117    7.7853 C   0  0  0  0  0  0  0  0  0  0  0  0
    3.3566  -16.3710    8.8000 N   0  0  0  0  0  0  0  0  0  0  0  0
    4.6987  -16.0790    9.0324 C   0  0  0  0  0  0  0  0  0  0  0  0
    5.1200  -16.9275   10.0209 C   0  0  0  0  0  0  0  0  0  0  0  0
    4.0748  -17.6969   10.4637 N   0  0  0  0  0  0  0  0  0  0  0  0
    3.0093  -17.3811    9.7284 C   0  0  0  0  0  0  0  0  0  0  0  0
    1.6924  -18.0515    9.8370 C   0  0  0  0  0  0  0  0  0  0  0  0
    0.5557  -17.5795    9.3404 N   0  0  0  0  0  0  0  0  0  0  0  0
   -0.4560  -18.5143    9.5655 N   0  0  0  0  0  0  0  0  0  0  0  0
    0.0966  -19.5213   10.2064 C   0  0  0  0  0  0  0  0  0  0  0  0
   -0.4753  -20.8637   10.6048 C   0  0  0  0  0  0  0  0  0  0  0  0
   -0.7462  -20.9714   12.1118 C   0  0  0  0  0  0  0  0  0  0  0  0
   -2.1120  -21.5611   12.4343 C   0  0  0  0  0  0  0  0  0  0  0  0
   -3.1363  -20.7875   11.7587 N   0  0  0  0  0  0  0  0  0  0  0  0
   -3.0327  -20.7973   10.3088 C   0  0  0  0  0  0  0  0  0  0  0  0
   -1.6925  -21.2949    9.7698 C   0  0  0  0  0  0  0  0  0  0  0  0
    1.4488  -19.3013   10.4289 O   0  0  0  0  0  0  0  0  0  0  0  0
    2.2029  -14.5041    6.1772 H   0  0  0  0  0  0  0  0  0  0  0  0
    3.8995  -14.3900    6.8982 H   0  0  0  0  0  0  0  0  0  0  0  0
    1.5586  -16.2043    7.7080 H   0  0  0  0  0  0  0  0  0  0  0  0
    5.2280  -15.3315    8.4617 H   0  0  0  0  0  0  0  0  0  0  0  0
    6.1075  -17.0153   10.4547 H   0  0  0  0  0  0  0  0  0  0  0  0
    0.3193  -21.5866   10.3666 H   0  0  0  0  0  0  0  0  0  0  0  0
    0.0266  -21.6010   12.5718 H   0  0  0  0  0  0  0  0  0  0  0  0
   -0.6469  -19.9926   12.5954 H   0  0  0  0  0  0  0  0  0  0  0  0
   -2.1616  -22.6210   12.1580 H   0  0  0  0  0  0  0  0  0  0  0  0
   -2.2560  -21.4997   13.5184 H   0  0  0  0  0  0  0  0  0  0  0  0
   -4.0654  -21.1397   12.0405 H   0  0  0  0  0  0  0  0  0  0  0  0
   -3.2200  -19.7803    9.9471 H   0  0  0  0  0  0  0  0  0  0  0  0
   -3.8142  -21.4305    9.8786 H   0  0  0  0  0  0  0  0  0  0  0  0
   -1.5795  -20.9933    8.7212 H   0  0  0  0  0  0  0  0  0  0  0  0
   -1.7211  -22.3939    9.7634 H   0  0  0  0  0  0  0  0  0  0  0  0
  1  2  2  0
  2  3  1  0
  3  4  1  0
  4  5  2  0
  5  6  1  0
  6  7  2  0
  7  8  1  0
  8  9  2  0
  9 10  1  0
 10 11  2  0
 11 12  1  0
 12 13  1  0
 13 14  1  0
 14 15  1  0
 15 16  1  0
 16 17  1  0
 11 18  1  0
  7  3  1  0
 18  8  1  0
 17 12  1  0
  1 19  1  0
  1 20  1  0
  2 21  1  0
  4 22  1  0
  5 23  1  0
 12 24  1  0
 13 25  1  0
 13 26  1  0
 14 27  1  0
 14 28  1  0
 15 29  1  0
 16 30  1  0
 16 31  1  0
 17 32  1  0
 17 33  1  0
M  END
>  <Energy>  (1215) 
41.449389478316284

>  <compound_id>  (1215) 
17736

>  <target_id>  (1215) 
1

>  <reference_id>  (1215) 
63

>  <inspiration_ids>  (1215) 
[63, 9]

>  <energy_score>  (1215) 
-34.60986411121297

>  <distance_score>  (1215) 
14.469770420332246

>  <path>  (1215) 
/opt/xchem-fragalysis-2/maxwin/BulkDock/SCRATCH/511014/C17736-P63/C17736-P63.minimised.mol

>  <scratch_subdir>  (1215) 
/opt/xchem-fragalysis-2/maxwin/BulkDock/SCRATCH/511014/C17736-P63

>  <fragmenstein_runtime>  (1215) 
9.361393690109253

>  <fragmenstein_outcome>  (1215) 
too moved

>  <fragmenstein_mode>  (1215) 
expansion

>  <fragmenstein_error>  (1215) 


$$$$
C17736-P9
     RDKit          3D

 33 35  0  0  0  0  0  0  0  0999 V2000
   -7.9050  -11.8809    7.9073 C   0  0  0  0  0  0  0  0  0  0  0  0
   -6.8573  -11.1401    7.5260 C   0  0  0  0  0  0  0  0  0  0  0  0
   -5.6650  -11.5322    6.8956 N   0  0  0  0  0  0  0  0  0  0  0  0
   -4.8502  -10.6046    6.2495 C   0  0  0  0  0  0  0  0  0  0  0  0
   -3.9575  -11.3136    5.5018 C   0  0  0  0  0  0  0  0  0  0  0  0
   -4.1017  -12.6507    5.7588 N   0  0  0  0  0  0  0  0  0  0  0  0
   -5.0999  -12.7908    6.6330 C   0  0  0  0  0  0  0  0  0  0  0  0
   -5.5508  -14.1122    7.1020 C   0  0  0  0  0  0  0  0  0  0  0  0
   -5.3471  -15.2257    6.4071 N   0  0  0  0  0  0  0  0  0  0  0  0
   -5.8919  -16.2942    7.1097 N   0  0  0  0  0  0  0  0  0  0  0  0
   -6.3846  -15.7979    8.2217 C   0  0  0  0  0  0  0  0  0  0  0  0
   -7.0856  -16.5125    9.3458 C   0  0  0  0  0  0  0  0  0  0  0  0
   -8.2770  -17.3342    8.8302 C   0  0  0  0  0  0  0  0  0  0  0  0
   -8.9197  -18.1514    9.9460 C   0  0  0  0  0  0  0  0  0  0  0  0
   -7.9573  -18.9929   10.6529 N   0  0  0  0  0  0  0  0  0  0  0  0
   -6.8509  -18.2176   11.1985 C   0  0  0  0  0  0  0  0  0  0  0  0
   -6.1259  -17.4394   10.1055 C   0  0  0  0  0  0  0  0  0  0  0  0
   -6.2184  -14.4254    8.2935 O   0  0  0  0  0  0  0  0  0  0  0  0
   -8.7685  -11.4036    8.3644 H   0  0  0  0  0  0  0  0  0  0  0  0
   -7.9893  -12.9473    7.7454 H   0  0  0  0  0  0  0  0  0  0  0  0
   -6.9328  -10.0636    7.6700 H   0  0  0  0  0  0  0  0  0  0  0  0
   -5.0419   -9.5441    6.3184 H   0  0  0  0  0  0  0  0  0  0  0  0
   -3.2052  -10.9461    4.8158 H   0  0  0  0  0  0  0  0  0  0  0  0
   -7.4648  -15.7558   10.0462 H   0  0  0  0  0  0  0  0  0  0  0  0
   -9.0275  -16.6645    8.3912 H   0  0  0  0  0  0  0  0  0  0  0  0
   -7.9581  -18.0025    8.0220 H   0  0  0  0  0  0  0  0  0  0  0  0
   -9.4064  -17.4691   10.6507 H   0  0  0  0  0  0  0  0  0  0  0  0
   -9.6957  -18.7811    9.5013 H   0  0  0  0  0  0  0  0  0  0  0  0
   -8.4214  -19.4978   11.4056 H   0  0  0  0  0  0  0  0  0  0  0  0
   -7.2155  -17.5237   11.9652 H   0  0  0  0  0  0  0  0  0  0  0  0
   -6.1425  -18.8974   11.6840 H   0  0  0  0  0  0  0  0  0  0  0  0
   -5.6408  -18.1395    9.4122 H   0  0  0  0  0  0  0  0  0  0  0  0
   -5.3249  -16.8436   10.5563 H   0  0  0  0  0  0  0  0  0  0  0  0
  1  2  2  0
  2  3  1  0
  3  4  1  0
  4  5  2  0
  5  6  1  0
  6  7  2  0
  7  8  1  0
  8  9  2  0
  9 10  1  0
 10 11  2  0
 11 12  1  0
 12 13  1  0
 13 14  1  0
 14 15  1  0
 15 16  1  0
 16 17  1  0
 11 18  1  0
  7  3  1  0
 18  8  1  0
 17 12  1  0
  1 19  1  0
  1 20  1  0
  2 21  1  0
  4 22  1  0
  5 23  1  0
 12 24  1  0
 13 25  1  0
 13 26  1  0
 14 27  1  0
 14 28  1  0
 15 29  1  0
 16 30  1  0
 16 31  1  0
 17 32  1  0
 17 33  1  0
M  END
>  <Energy>  (1216) 
42.50910733352169

>  <compound_id>  (1216) 
17736

>  <target_id>  (1216) 
1

>  <reference_id>  (1216) 
9

>  <inspiration_ids>  (1216) 
[63, 9]

>  <energy_score>  (1216) 
-33.55014625600785

>  <distance_score>  (1216) 
15.639504799665646

>  <path>  (1216) 
/opt/xchem-fragalysis-2/maxwin/BulkDock/SCRATCH/511014/C17736-P9/C17736-P9.minimised.mol

>  <scratch_subdir>  (1216) 
/opt/xchem-fragalysis-2/maxwin/BulkDock/SCRATCH/511014/C17736-P9

>  <fragmenstein_runtime>  (1216) 
9.703934669494629

>  <fragmenstein_outcome>  (1216) 
too moved

>  <fragmenstein_mode>  (1216) 
expansion

>  <fragmenstein_error>  (1216) 


$$$$
C17737-P63
     RDKit          3D

 35 37  0  0  0  0  0  0  0  0999 V2000
    6.3910  -17.9553   14.7194 C   0  0  0  0  0  0  0  0  0  0  0  0
    5.1560  -18.5292   15.4009 C   0  0  0  0  0  0  0  0  0  0  0  0
    4.6304  -17.7659   16.5215 N   0  0  0  0  0  0  0  0  0  0  0  0
    5.2509  -16.7251   17.1713 C   0  0  0  0  0  0  0  0  0  0  0  0
    4.3407  -16.2861   18.0982 C   0  0  0  0  0  0  0  0  0  0  0  0
    3.2288  -17.0948   18.0964 N   0  0  0  0  0  0  0  0  0  0  0  0
    3.4164  -18.0210   17.1619 C   0  0  0  0  0  0  0  0  0  0  0  0
    2.5071  -19.1519   16.8624 C   0  0  0  0  0  0  0  0  0  0  0  0
    2.8017  -20.1383   16.0245 N   0  0  0  0  0  0  0  0  0  0  0  0
    1.6888  -20.9610   15.8994 N   0  0  0  0  0  0  0  0  0  0  0  0
    0.7621  -20.4733   16.6951 C   0  0  0  0  0  0  0  0  0  0  0  0
   -0.6800  -20.9036   16.8311 C   0  0  0  0  0  0  0  0  0  0  0  0
   -0.9473  -21.7645   18.0828 C   0  0  0  0  0  0  0  0  0  0  0  0
   -1.9833  -22.8806   17.8686 C   0  0  0  0  0  0  0  0  0  0  0  0
   -3.0647  -22.4153   17.0240 N   0  0  0  0  0  0  0  0  0  0  0  0
   -2.5822  -22.0794   15.6806 C   0  0  0  0  0  0  0  0  0  0  0  0
   -1.1204  -21.6737   15.5852 C   0  0  0  0  0  0  0  0  0  0  0  0
    1.2181  -19.3624   17.3875 O   0  0  0  0  0  0  0  0  0  0  0  0
    6.2075  -16.9412   14.3503 H   0  0  0  0  0  0  0  0  0  0  0  0
    7.2450  -17.9228   15.4037 H   0  0  0  0  0  0  0  0  0  0  0  0
    6.6721  -18.5800   13.8655 H   0  0  0  0  0  0  0  0  0  0  0  0
    5.3839  -19.5315   15.7794 H   0  0  0  0  0  0  0  0  0  0  0  0
    4.3564  -18.5984   14.6562 H   0  0  0  0  0  0  0  0  0  0  0  0
    6.2407  -16.3768   16.9192 H   0  0  0  0  0  0  0  0  0  0  0  0
    4.4232  -15.4515   18.7822 H   0  0  0  0  0  0  0  0  0  0  0  0
   -1.2897  -19.9926   16.9020 H   0  0  0  0  0  0  0  0  0  0  0  0
   -0.0189  -22.2234   18.4464 H   0  0  0  0  0  0  0  0  0  0  0  0
   -1.2887  -21.1005   18.8883 H   0  0  0  0  0  0  0  0  0  0  0  0
   -2.3808  -23.1890   18.8418 H   0  0  0  0  0  0  0  0  0  0  0  0
   -1.5061  -23.7668   17.4317 H   0  0  0  0  0  0  0  0  0  0  0  0
   -3.7718  -23.1559   16.9201 H   0  0  0  0  0  0  0  0  0  0  0  0
   -2.7122  -22.9432   15.0220 H   0  0  0  0  0  0  0  0  0  0  0  0
   -3.1829  -21.2461   15.3068 H   0  0  0  0  0  0  0  0  0  0  0  0
   -0.5002  -22.5732   15.4649 H   0  0  0  0  0  0  0  0  0  0  0  0
   -0.9658  -21.0720   14.6803 H   0  0  0  0  0  0  0  0  0  0  0  0
  1  2  1  0
  2  3  1  0
  3  4  1  0
  4  5  2  0
  5  6  1  0
  6  7  2  0
  7  8  1  0
  8  9  2  0
  9 10  1  0
 10 11  2  0
 11 12  1  0
 12 13  1  0
 13 14  1  0
 14 15  1  0
 15 16  1  0
 16 17  1  0
 11 18  1  0
  7  3  1  0
 18  8  1  0
 17 12  1  0
  1 19  1  0
  1 20  1  0
  1 21  1  0
  2 22  1  0
  2 23  1  0
  4 24  1  0
  5 25  1  0
 12 26  1  0
 13 27  1  0
 13 28  1  0
 14 29  1  0
 14 30  1  0
 15 31  1  0
 16 32  1  0
 16 33  1  0
 17 34  1  0
 17 35  1  0
M  END
>  <Energy>  (1217) 
25.451203047561805

>  <compound_id>  (1217) 
17737

>  <target_id>  (1217) 
1

>  <reference_id>  (1217) 
63

>  <inspiration_ids>  (1217) 
[63, 9]

>  <energy_score>  (1217) 
-17.362196412548514

>  <distance_score>  (1217) 
14.151962680022518

>  <path>  (1217) 
/opt/xchem-fragalysis-2/maxwin/BulkDock/SCRATCH/511014/C17737-P63/C17737-P63.minimised.mol

>  <scratch_subdir>  (1217) 
/opt/xchem-fragalysis-2/maxwin/BulkDock/SCRATCH/511014/C17737-P63

>  <fragmenstein_runtime>  (1217) 
16.70882272720337

>  <fragmenstein_outcome>  (1217) 
too moved

>  <fragmenstein_mode>  (1217) 
expansion

>  <fragmenstein_error>  (1217) 


$$$$
C17737-P9
     RDKit          3D

 35 37  0  0  0  0  0  0  0  0999 V2000
   -0.5489  -12.9627   22.4686 C   0  0  0  0  0  0  0  0  0  0  0  0
   -1.8094  -13.2974   21.6830 C   0  0  0  0  0  0  0  0  0  0  0  0
   -2.0208  -12.4954   20.4894 N   0  0  0  0  0  0  0  0  0  0  0  0
   -1.6976  -11.1665   20.3412 C   0  0  0  0  0  0  0  0  0  0  0  0
   -2.0532  -10.8574   19.0554 C   0  0  0  0  0  0  0  0  0  0  0  0
   -2.6019  -11.9494   18.4331 N   0  0  0  0  0  0  0  0  0  0  0  0
   -2.6801  -12.9177   19.3399 C   0  0  0  0  0  0  0  0  0  0  0  0
   -3.4243  -14.1881   19.2003 C   0  0  0  0  0  0  0  0  0  0  0  0
   -3.9995  -14.8435   20.2042 N   0  0  0  0  0  0  0  0  0  0  0  0
   -4.5782  -16.0191   19.6971 N   0  0  0  0  0  0  0  0  0  0  0  0
   -4.3178  -16.0362   18.4113 C   0  0  0  0  0  0  0  0  0  0  0  0
   -4.4128  -17.1207   17.3900 C   0  0  0  0  0  0  0  0  0  0  0  0
   -5.6736  -17.2684   16.5697 C   0  0  0  0  0  0  0  0  0  0  0  0
   -5.1864  -17.9112   15.2548 C   0  0  0  0  0  0  0  0  0  0  0  0
   -4.6639  -19.2651   15.4723 N   0  0  0  0  0  0  0  0  0  0  0  0
   -3.7175  -19.3976   16.5847 C   0  0  0  0  0  0  0  0  0  0  0  0
   -4.0044  -18.5288   17.8262 C   0  0  0  0  0  0  0  0  0  0  0  0
   -3.6312  -14.8919   18.0190 O   0  0  0  0  0  0  0  0  0  0  0  0
   -0.4221  -13.6704   23.2940 H   0  0  0  0  0  0  0  0  0  0  0  0
    0.3403  -13.0177   21.8320 H   0  0  0  0  0  0  0  0  0  0  0  0
   -0.5983  -11.9578   22.8996 H   0  0  0  0  0  0  0  0  0  0  0  0
   -1.7402  -14.3450   21.3728 H   0  0  0  0  0  0  0  0  0  0  0  0
   -2.6981  -13.1732   22.3110 H   0  0  0  0  0  0  0  0  0  0  0  0
   -1.2476  -10.5782   21.1276 H   0  0  0  0  0  0  0  0  0  0  0  0
   -1.9499   -9.9103   18.5464 H   0  0  0  0  0  0  0  0  0  0  0  0
   -3.6726  -16.7818   16.6757 H   0  0  0  0  0  0  0  0  0  0  0  0
   -6.1865  -16.3288   16.3801 H   0  0  0  0  0  0  0  0  0  0  0  0
   -6.4079  -17.8761   17.1078 H   0  0  0  0  0  0  0  0  0  0  0  0
   -4.4031  -17.3006   14.7884 H   0  0  0  0  0  0  0  0  0  0  0  0
   -5.9905  -17.9195   14.5227 H   0  0  0  0  0  0  0  0  0  0  0  0
   -4.2074  -19.5933   14.6149 H   0  0  0  0  0  0  0  0  0  0  0  0
   -3.6698  -20.4490   16.8888 H   0  0  0  0  0  0  0  0  0  0  0  0
   -2.7181  -19.1510   16.2099 H   0  0  0  0  0  0  0  0  0  0  0  0
   -4.7978  -18.9861   18.4309 H   0  0  0  0  0  0  0  0  0  0  0  0
   -3.1063  -18.4962   18.4548 H   0  0  0  0  0  0  0  0  0  0  0  0
  1  2  1  0
  2  3  1  0
  3  4  1  0
  4  5  2  0
  5  6  1  0
  6  7  2  0
  7  8  1  0
  8  9  2  0
  9 10  1  0
 10 11  2  0
 11 12  1  0
 12 13  1  0
 13 14  1  0
 14 15  1  0
 15 16  1  0
 16 17  1  0
 11 18  1  0
  7  3  1  0
 18  8  1  0
 17 12  1  0
  1 19  1  0
  1 20  1  0
  1 21  1  0
  2 22  1  0
  2 23  1  0
  4 24  1  0
  5 25  1  0
 12 26  1  0
 13 27  1  0
 13 28  1  0
 14 29  1  0
 14 30  1  0
 15 31  1  0
 16 32  1  0
 16 33  1  0
 17 34  1  0
 17 35  1  0
M  END
>  <Energy>  (1218) 
33.572843357817639

>  <compound_id>  (1218) 
17737

>  <target_id>  (1218) 
1

>  <reference_id>  (1218) 
9

>  <inspiration_ids>  (1218) 
[63, 9]

>  <energy_score>  (1218) 
-9.240556102293965

>  <distance_score>  (1218) 
14.344905744422453

>  <path>  (1218) 
/opt/xchem-fragalysis-2/maxwin/BulkDock/SCRATCH/511014/C17737-P9/C17737-P9.minimised.mol

>  <scratch_subdir>  (1218) 
/opt/xchem-fragalysis-2/maxwin/BulkDock/SCRATCH/511014/C17737-P9

>  <fragmenstein_runtime>  (1218) 
8.0203697681427

>  <fragmenstein_outcome>  (1218) 
too moved

>  <fragmenstein_mode>  (1218) 
expansion

>  <fragmenstein_error>  (1218) 


$$$$
C17738-P63
     RDKit          3D

 30 32  0  0  0  0  0  0  0  0999 V2000
    4.2252  -12.7760   18.5675 O   0  0  0  0  0  0  0  0  0  0  0  0
    3.7399  -11.7071   17.7774 N   0  0  0  0  0  0  0  0  0  0  0  0
    4.5221  -10.5982   17.5963 C   0  0  0  0  0  0  0  0  0  0  0  0
    4.6058  -10.4921   16.2431 C   0  0  0  0  0  0  0  0  0  0  0  0
    3.7975  -11.4522   15.6698 N   0  0  0  0  0  0  0  0  0  0  0  0
    2.7816  -11.8982   16.6095 C   0  0  0  0  0  0  0  0  0  0  0  0
    1.2988  -13.4320   16.6838 C   0  0  0  0  0  0  0  0  0  0  0  0
    0.7330  -14.4956   16.1669 N   0  0  0  0  0  0  0  0  0  0  0  0
   -1.1320  -14.3907   15.9796 N   0  0  0  0  0  0  0  0  0  0  0  0
   -1.8239  -14.1744   17.0016 C   0  0  0  0  0  0  0  0  0  0  0  0
   -3.2421  -15.5267   17.0905 C   0  0  0  0  0  0  0  0  0  0  0  0
   -4.0285  -16.6090   15.9296 C   0  0  0  0  0  0  0  0  0  0  0  0
   -5.4333  -17.0516   16.4117 C   0  0  0  0  0  0  0  0  0  0  0  0
   -5.4181  -17.9255   17.5881 N   0  0  0  0  0  0  0  0  0  0  0  0
   -4.1067  -18.0466   18.2080 C   0  0  0  0  0  0  0  0  0  0  0  0
   -3.4966  -16.6577   18.5340 C   0  0  0  0  0  0  0  0  0  0  0  0
   -0.3150  -13.3818   17.6749 O   0  0  0  0  0  0  0  0  0  0  0  0
    3.9925  -13.5024   17.9601 H   0  0  0  0  0  0  0  0  0  0  0  0
    5.0887  -10.1589   18.4022 H   0  0  0  0  0  0  0  0  0  0  0  0
    5.2498   -9.8642   15.6415 H   0  0  0  0  0  0  0  0  0  0  0  0
   -3.9541  -14.7471   17.0716 H   0  0  0  0  0  0  0  0  0  0  0  0
   -3.9696  -16.3099   14.8950 H   0  0  0  0  0  0  0  0  0  0  0  0
   -3.5744  -17.6024   15.7918 H   0  0  0  0  0  0  0  0  0  0  0  0
   -6.0751  -16.2004   16.6520 H   0  0  0  0  0  0  0  0  0  0  0  0
   -5.9235  -17.5708   15.5822 H   0  0  0  0  0  0  0  0  0  0  0  0
   -5.7521  -18.8547   17.3334 H   0  0  0  0  0  0  0  0  0  0  0  0
   -3.4295  -18.6660   17.6106 H   0  0  0  0  0  0  0  0  0  0  0  0
   -4.2312  -18.5893   19.1532 H   0  0  0  0  0  0  0  0  0  0  0  0
   -2.5410  -16.7645   19.0725 H   0  0  0  0  0  0  0  0  0  0  0  0
   -4.1921  -16.2955   19.2937 H   0  0  0  0  0  0  0  0  0  0  0  0
  1  2  1  0
  2  3  1  0
  3  4  2  0
  4  5  1  0
  5  6  2  0
  6  7  1  0
  7  8  2  0
  8  9  1  0
  9 10  2  0
 10 11  1  0
 11 12  1  0
 12 13  1  0
 13 14  1  0
 14 15  1  0
 15 16  1  0
 10 17  1  0
  6  2  1  0
 17  7  1  0
 16 11  1  0
  1 18  1  0
  3 19  1  0
  4 20  1  0
 11 21  1  0
 12 22  1  0
 12 23  1  0
 13 24  1  0
 13 25  1  0
 14 26  1  0
 15 27  1  0
 15 28  1  0
 16 29  1  0
 16 30  1  0
M  END
>  <Energy>  (1219) 
673.01705669667842

>  <compound_id>  (1219) 
17738

>  <target_id>  (1219) 
1

>  <reference_id>  (1219) 
63

>  <inspiration_ids>  (1219) 
[63, 9]

>  <energy_score>  (1219) 
618.6471150879557

>  <distance_score>  (1219) 
12.803349365867644

>  <path>  (1219) 
/opt/xchem-fragalysis-2/maxwin/BulkDock/SCRATCH/511014/C17738-P63/C17738-P63.minimised.mol

>  <scratch_subdir>  (1219) 
/opt/xchem-fragalysis-2/maxwin/BulkDock/SCRATCH/511014/C17738-P63

>  <fragmenstein_runtime>  (1219) 
6.749579906463623

>  <fragmenstein_outcome>  (1219) 
too moved

>  <fragmenstein_mode>  (1219) 
expansion

>  <fragmenstein_error>  (1219) 


$$$$
C17738-P9
     RDKit          3D

 30 32  0  0  0  0  0  0  0  0999 V2000
    3.1254  -12.8019    9.2884 O   0  0  0  0  0  0  0  0  0  0  0  0
    2.5216  -12.0623   10.3761 N   0  0  0  0  0  0  0  0  0  0  0  0
    2.8277  -10.7484   10.4367 C   0  0  0  0  0  0  0  0  0  0  0  0
    1.6743  -10.2413   10.9175 C   0  0  0  0  0  0  0  0  0  0  0  0
    0.7250  -11.1884   11.5253 N   0  0  0  0  0  0  0  0  0  0  0  0
    1.0985  -12.4577   11.2630 C   0  0  0  0  0  0  0  0  0  0  0  0
    0.2488  -13.9567   11.5831 C   0  0  0  0  0  0  0  0  0  0  0  0
    0.7078  -15.2093   11.3887 N   0  0  0  0  0  0  0  0  0  0  0  0
   -0.3336  -16.0927   10.7930 N   0  0  0  0  0  0  0  0  0  0  0  0
   -1.4826  -15.4129   10.7406 C   0  0  0  0  0  0  0  0  0  0  0  0
   -3.0173  -15.7692    9.7848 C   0  0  0  0  0  0  0  0  0  0  0  0
   -2.8722  -17.0702    8.8961 C   0  0  0  0  0  0  0  0  0  0  0  0
   -4.0658  -17.3190    7.9531 C   0  0  0  0  0  0  0  0  0  0  0  0
   -5.3734  -17.3522    8.6040 N   0  0  0  0  0  0  0  0  0  0  0  0
   -5.6197  -16.0880    9.3011 C   0  0  0  0  0  0  0  0  0  0  0  0
   -4.5863  -15.9363   10.4118 C   0  0  0  0  0  0  0  0  0  0  0  0
   -1.1688  -14.1833   11.3946 O   0  0  0  0  0  0  0  0  0  0  0  0
    2.7290  -12.3523    8.5234 H   0  0  0  0  0  0  0  0  0  0  0  0
    3.6888  -10.3103    9.9559 H   0  0  0  0  0  0  0  0  0  0  0  0
    1.4830   -9.1785   10.8379 H   0  0  0  0  0  0  0  0  0  0  0  0
   -3.1280  -14.9114    9.1462 H   0  0  0  0  0  0  0  0  0  0  0  0
   -1.9674  -17.0389    8.2852 H   0  0  0  0  0  0  0  0  0  0  0  0
   -2.7684  -17.9620    9.5189 H   0  0  0  0  0  0  0  0  0  0  0  0
   -3.9135  -18.2755    7.4396 H   0  0  0  0  0  0  0  0  0  0  0  0
   -4.0714  -16.5530    7.1676 H   0  0  0  0  0  0  0  0  0  0  0  0
   -5.4029  -18.1207    9.2739 H   0  0  0  0  0  0  0  0  0  0  0  0
   -6.6255  -16.1178    9.7342 H   0  0  0  0  0  0  0  0  0  0  0  0
   -5.5944  -15.2395    8.6083 H   0  0  0  0  0  0  0  0  0  0  0  0
   -4.7793  -16.8650   10.9774 H   0  0  0  0  0  0  0  0  0  0  0  0
   -4.8348  -15.1737   11.1492 H   0  0  0  0  0  0  0  0  0  0  0  0
  1  2  1  0
  2  3  1  0
  3  4  2  0
  4  5  1  0
  5  6  2  0
  6  7  1  0
  7  8  2  0
  8  9  1  0
  9 10  2  0
 10 11  1  0
 11 12  1  0
 12 13  1  0
 13 14  1  0
 14 15  1  0
 15 16  1  0
 10 17  1  0
  6  2  1  0
 17  7  1  0
 16 11  1  0
  1 18  1  0
  3 19  1  0
  4 20  1  0
 11 21  1  0
 12 22  1  0
 12 23  1  0
 13 24  1  0
 13 25  1  0
 14 26  1  0
 15 27  1  0
 15 28  1  0
 16 29  1  0
 16 30  1  0
M  END
>  <Energy>  (1220) 
186.6458747498173

>  <compound_id>  (1220) 
17738

>  <target_id>  (1220) 
1

>  <reference_id>  (1220) 
9

>  <inspiration_ids>  (1220) 
[63, 9]

>  <energy_score>  (1220) 
132.27593314109885

>  <distance_score>  (1220) 
13.936659224318511

>  <path>  (1220) 
/opt/xchem-fragalysis-2/maxwin/BulkDock/SCRATCH/511014/C17738-P9/C17738-P9.minimised.mol

>  <scratch_subdir>  (1220) 
/opt/xchem-fragalysis-2/maxwin/BulkDock/SCRATCH/511014/C17738-P9

>  <fragmenstein_runtime>  (1220) 
8.965822219848633

>  <fragmenstein_outcome>  (1220) 
too moved

>  <fragmenstein_mode>  (1220) 
expansion

>  <fragmenstein_error>  (1220) 


$$$$
C17739-P63
     RDKit          3D

 29 31  0  0  0  0  0  0  0  0999 V2000
    1.0744  -19.9719   14.2387 C   0  0  0  0  0  0  0  0  0  0  0  0
   -0.1221  -20.1294   13.7165 N   0  0  0  0  0  0  0  0  0  0  0  0
   -1.0090  -20.2379   14.7774 C   0  0  0  0  0  0  0  0  0  0  0  0
   -2.6557  -20.2511   14.5976 C   0  0  0  0  0  0  0  0  0  0  0  0
   -3.4482  -19.7247   15.5098 N   0  0  0  0  0  0  0  0  0  0  0  0
   -4.6317  -19.4025   14.8733 N   0  0  0  0  0  0  0  0  0  0  0  0
   -4.6249  -19.9292   13.6448 C   0  0  0  0  0  0  0  0  0  0  0  0
   -6.0173  -20.2487   12.8513 C   0  0  0  0  0  0  0  0  0  0  0  0
   -6.5584  -19.1306   11.8923 C   0  0  0  0  0  0  0  0  0  0  0  0
   -8.0621  -19.1946   11.4104 C   0  0  0  0  0  0  0  0  0  0  0  0
   -8.8343  -20.4373   11.2592 N   0  0  0  0  0  0  0  0  0  0  0  0
   -8.4591  -21.6196   12.0493 C   0  0  0  0  0  0  0  0  0  0  0  0
   -7.1676  -21.5507   13.0009 C   0  0  0  0  0  0  0  0  0  0  0  0
   -3.3658  -20.4474   13.3800 O   0  0  0  0  0  0  0  0  0  0  0  0
   -0.3010  -20.1312   15.9590 C   0  0  0  0  0  0  0  0  0  0  0  0
    1.0174  -19.9550   15.6008 N   0  0  0  0  0  0  0  0  0  0  0  0
    1.9971  -19.8478   13.6869 H   0  0  0  0  0  0  0  0  0  0  0  0
   -6.3215  -19.9388   13.8101 H   0  0  0  0  0  0  0  0  0  0  0  0
   -5.8628  -19.0733   11.0678 H   0  0  0  0  0  0  0  0  0  0  0  0
   -6.4509  -18.1421   12.3637 H   0  0  0  0  0  0  0  0  0  0  0  0
   -8.1144  -18.6595   10.4519 H   0  0  0  0  0  0  0  0  0  0  0  0
   -8.6670  -18.5093   12.0149 H   0  0  0  0  0  0  0  0  0  0  0  0
   -8.7644  -20.7072   10.2796 H   0  0  0  0  0  0  0  0  0  0  0  0
   -9.3360  -21.9086   12.6520 H   0  0  0  0  0  0  0  0  0  0  0  0
   -8.3970  -22.5046   11.4055 H   0  0  0  0  0  0  0  0  0  0  0  0
   -6.7027  -22.5018   12.8977 H   0  0  0  0  0  0  0  0  0  0  0  0
   -7.5197  -21.7269   14.0143 H   0  0  0  0  0  0  0  0  0  0  0  0
   -0.6232  -20.1276   16.9902 H   0  0  0  0  0  0  0  0  0  0  0  0
    1.8022  -19.8100   16.2204 H   0  0  0  0  0  0  0  0  0  0  0  0
  1  2  2  0
  2  3  1  0
  3  4  1  0
  4  5  2  0
  5  6  1  0
  6  7  2  0
  7  8  1  0
  8  9  1  0
  9 10  1  0
 10 11  1  0
 11 12  1  0
 12 13  1  0
  7 14  1  0
  3 15  2  0
 15 16  1  0
 16  1  1  0
 14  4  1  0
 13  8  1  0
  1 17  1  0
  8 18  1  0
  9 19  1  0
  9 20  1  0
 10 21  1  0
 10 22  1  0
 11 23  1  0
 12 24  1  0
 12 25  1  0
 13 26  1  0
 13 27  1  0
 15 28  1  0
 16 29  1  0
M  END
>  <Energy>  (1221) 
132.49211554548484

>  <compound_id>  (1221) 
17739

>  <target_id>  (1221) 
1

>  <reference_id>  (1221) 
63

>  <inspiration_ids>  (1221) 
[63, 9]

>  <energy_score>  (1221) 
73.77443714641635

>  <distance_score>  (1221) 
14.898281271749036

>  <path>  (1221) 
/opt/xchem-fragalysis-2/maxwin/BulkDock/SCRATCH/511014/C17739-P63/C17739-P63.minimised.mol

>  <scratch_subdir>  (1221) 
/opt/xchem-fragalysis-2/maxwin/BulkDock/SCRATCH/511014/C17739-P63

>  <fragmenstein_runtime>  (1221) 
5.600265979766846

>  <fragmenstein_outcome>  (1221) 
too moved

>  <fragmenstein_mode>  (1221) 
expansion

>  <fragmenstein_error>  (1221) 


$$$$
C17739-P9
     RDKit          3D

 29 31  0  0  0  0  0  0  0  0999 V2000
    2.3538  -16.8098    9.4656 C   0  0  0  0  0  0  0  0  0  0  0  0
    1.2673  -17.5525    9.3670 N   0  0  0  0  0  0  0  0  0  0  0  0
    1.4271  -18.5830   10.2834 C   0  0  0  0  0  0  0  0  0  0  0  0
    0.4301  -19.8668   10.5740 C   0  0  0  0  0  0  0  0  0  0  0  0
    0.7147  -20.7264   11.5439 N   0  0  0  0  0  0  0  0  0  0  0  0
   -0.2688  -21.6935   11.5677 N   0  0  0  0  0  0  0  0  0  0  0  0
   -1.1043  -21.4263   10.5866 C   0  0  0  0  0  0  0  0  0  0  0  0
   -2.2268  -22.3380   10.1496 C   0  0  0  0  0  0  0  0  0  0  0  0
   -3.2928  -22.5345   11.2374 C   0  0  0  0  0  0  0  0  0  0  0  0
   -4.3493  -23.5684   10.8216 C   0  0  0  0  0  0  0  0  0  0  0  0
   -4.9491  -23.2120    9.5390 N   0  0  0  0  0  0  0  0  0  0  0  0
   -3.9263  -23.1148    8.5009 C   0  0  0  0  0  0  0  0  0  0  0  0
   -2.9120  -22.0103    8.8314 C   0  0  0  0  0  0  0  0  0  0  0  0
   -0.7420  -20.2727    9.8965 O   0  0  0  0  0  0  0  0  0  0  0  0
    2.6385  -18.4199   10.9362 C   0  0  0  0  0  0  0  0  0  0  0  0
    3.2179  -17.3060   10.3982 N   0  0  0  0  0  0  0  0  0  0  0  0
    2.5688  -15.9242    8.8837 H   0  0  0  0  0  0  0  0  0  0  0  0
   -1.7359  -23.3144   10.0119 H   0  0  0  0  0  0  0  0  0  0  0  0
   -2.8042  -22.8691   12.1602 H   0  0  0  0  0  0  0  0  0  0  0  0
   -3.7770  -21.5731   11.4529 H   0  0  0  0  0  0  0  0  0  0  0  0
   -3.8942  -24.5648   10.7622 H   0  0  0  0  0  0  0  0  0  0  0  0
   -5.1511  -23.6343   11.5590 H   0  0  0  0  0  0  0  0  0  0  0  0
   -5.6411  -23.9175    9.2773 H   0  0  0  0  0  0  0  0  0  0  0  0
   -3.4159  -24.0785    8.3771 H   0  0  0  0  0  0  0  0  0  0  0  0
   -4.3944  -22.8956    7.5371 H   0  0  0  0  0  0  0  0  0  0  0  0
   -3.4117  -21.0345    8.8844 H   0  0  0  0  0  0  0  0  0  0  0  0
   -2.1725  -21.9443    8.0242 H   0  0  0  0  0  0  0  0  0  0  0  0
    3.1101  -18.9946   11.7207 H   0  0  0  0  0  0  0  0  0  0  0  0
    4.1095  -16.9160   10.6643 H   0  0  0  0  0  0  0  0  0  0  0  0
  1  2  2  0
  2  3  1  0
  3  4  1  0
  4  5  2  0
  5  6  1  0
  6  7  2  0
  7  8  1  0
  8  9  1  0
  9 10  1  0
 10 11  1  0
 11 12  1  0
 12 13  1  0
  7 14  1  0
  3 15  2  0
 15 16  1  0
 16  1  1  0
 14  4  1  0
 13  8  1  0
  1 17  1  0
  8 18  1  0
  9 19  1  0
  9 20  1  0
 10 21  1  0
 10 22  1  0
 11 23  1  0
 12 24  1  0
 12 25  1  0
 13 26  1  0
 13 27  1  0
 15 28  1  0
 16 29  1  0
M  END
>  <Energy>  (1222) 
29.760892218845211

>  <compound_id>  (1222) 
17739

>  <target_id>  (1222) 
1

>  <reference_id>  (1222) 
9

>  <inspiration_ids>  (1222) 
[63, 9]

>  <energy_score>  (1222) 
-28.956786180225464

>  <distance_score>  (1222) 
14.485759796679098

>  <path>  (1222) 
/opt/xchem-fragalysis-2/maxwin/BulkDock/SCRATCH/511014/C17739-P9/C17739-P9.minimised.mol

>  <scratch_subdir>  (1222) 
/opt/xchem-fragalysis-2/maxwin/BulkDock/SCRATCH/511014/C17739-P9

>  <fragmenstein_runtime>  (1222) 
5.869555950164795

>  <fragmenstein_outcome>  (1222) 
too moved

>  <fragmenstein_mode>  (1222) 
expansion

>  <fragmenstein_error>  (1222) 


$$$$
C17740-P63
     RDKit          3D

 32 34  0  0  0  0  0  0  0  0999 V2000
    6.2593   -9.3857   15.1836 C   0  0  0  0  0  0  0  0  0  0  0  0
    5.5843  -10.4738   14.6758 C   0  0  0  0  0  0  0  0  0  0  0  0
    4.2776  -10.4336   15.1866 N   0  0  0  0  0  0  0  0  0  0  0  0
    3.4387  -11.8731   15.3881 C   0  0  0  0  0  0  0  0  0  0  0  0
    1.5337  -12.5501   14.6641 C   0  0  0  0  0  0  0  0  0  0  0  0
    0.7863  -12.1961   13.5489 N   0  0  0  0  0  0  0  0  0  0  0  0
   -0.6416  -12.7212   13.4371 N   0  0  0  0  0  0  0  0  0  0  0  0
   -0.8750  -13.9038   14.0466 C   0  0  0  0  0  0  0  0  0  0  0  0
   -2.1901  -14.8044   15.3686 C   0  0  0  0  0  0  0  0  0  0  0  0
   -3.3789  -16.2793   15.1307 C   0  0  0  0  0  0  0  0  0  0  0  0
   -4.3321  -16.7737   16.3259 C   0  0  0  0  0  0  0  0  0  0  0  0
   -3.9840  -16.3400   17.6836 N   0  0  0  0  0  0  0  0  0  0  0  0
   -3.8083  -14.8959   17.8025 C   0  0  0  0  0  0  0  0  0  0  0  0
   -2.6697  -14.2301   16.9558 C   0  0  0  0  0  0  0  0  0  0  0  0
    0.7186  -13.9837   13.8993 O   0  0  0  0  0  0  0  0  0  0  0  0
    4.3896   -9.4495   16.1778 C   0  0  0  0  0  0  0  0  0  0  0  0
    5.4981   -8.7426   16.1061 N   0  0  0  0  0  0  0  0  0  0  0  0
    7.2609   -9.0567   14.9387 H   0  0  0  0  0  0  0  0  0  0  0  0
    5.8893  -11.2322   13.9679 H   0  0  0  0  0  0  0  0  0  0  0  0
    4.3134  -12.3390   14.9038 H   0  0  0  0  0  0  0  0  0  0  0  0
    3.3887  -11.6543   16.4871 H   0  0  0  0  0  0  0  0  0  0  0  0
   -1.4420  -15.0568   16.0399 H   0  0  0  0  0  0  0  0  0  0  0  0
   -2.9012  -17.2097   14.8058 H   0  0  0  0  0  0  0  0  0  0  0  0
   -4.0511  -16.2395   14.2946 H   0  0  0  0  0  0  0  0  0  0  0  0
   -5.3875  -16.5660   16.1147 H   0  0  0  0  0  0  0  0  0  0  0  0
   -4.2980  -17.8729   16.3255 H   0  0  0  0  0  0  0  0  0  0  0  0
   -4.7252  -16.6439   18.3170 H   0  0  0  0  0  0  0  0  0  0  0  0
   -3.5289  -14.7330   18.8548 H   0  0  0  0  0  0  0  0  0  0  0  0
   -4.7565  -14.3512   17.7500 H   0  0  0  0  0  0  0  0  0  0  0  0
   -2.5608  -13.1641   17.1015 H   0  0  0  0  0  0  0  0  0  0  0  0
   -1.8826  -14.4336   17.6753 H   0  0  0  0  0  0  0  0  0  0  0  0
    3.6587   -9.3260   16.9646 H   0  0  0  0  0  0  0  0  0  0  0  0
  1  2  2  0
  2  3  1  0
  3  4  1  0
  4  5  1  0
  5  6  2  0
  6  7  1  0
  7  8  2  0
  8  9  1  0
  9 10  1  0
 10 11  1  0
 11 12  1  0
 12 13  1  0
 13 14  1  0
  8 15  1  0
  3 16  1  0
 16 17  2  0
 17  1  1  0
 15  5  1  0
 14  9  1  0
  1 18  1  0
  2 19  1  0
  4 20  1  0
  4 21  1  0
  9 22  1  0
 10 23  1  0
 10 24  1  0
 11 25  1  0
 11 26  1  0
 12 27  1  0
 13 28  1  0
 13 29  1  0
 14 30  1  0
 14 31  1  0
 16 32  1  0
M  END
>  <Energy>  (1223) 
619.84392685582998

>  <compound_id>  (1223) 
17740

>  <target_id>  (1223) 
1

>  <reference_id>  (1223) 
63

>  <inspiration_ids>  (1223) 
[63, 9]

>  <energy_score>  (1223) 
578.5831918240908

>  <distance_score>  (1223) 
12.799677636688774

>  <path>  (1223) 
/opt/xchem-fragalysis-2/maxwin/BulkDock/SCRATCH/511014/C17740-P63/C17740-P63.minimised.mol

>  <scratch_subdir>  (1223) 
/opt/xchem-fragalysis-2/maxwin/BulkDock/SCRATCH/511014/C17740-P63

>  <fragmenstein_runtime>  (1223) 
12.000490665435791

>  <fragmenstein_outcome>  (1223) 
too moved

>  <fragmenstein_mode>  (1223) 
expansion

>  <fragmenstein_error>  (1223) 


$$$$
C17740-P9
     RDKit          3D

 32 34  0  0  0  0  0  0  0  0999 V2000
    0.2191  -12.3330   11.7893 C   0  0  0  0  0  0  0  0  0  0  0  0
   -0.1005  -12.5468   13.0614 C   0  0  0  0  0  0  0  0  0  0  0  0
   -0.6596  -13.8495   13.2270 N   0  0  0  0  0  0  0  0  0  0  0  0
   -1.7944  -14.6088   14.6083 C   0  0  0  0  0  0  0  0  0  0  0  0
   -3.1104  -16.0596   15.0285 C   0  0  0  0  0  0  0  0  0  0  0  0
   -3.8206  -16.0509   16.1858 N   0  0  0  0  0  0  0  0  0  0  0  0
   -4.4647  -17.2451   16.3680 N   0  0  0  0  0  0  0  0  0  0  0  0
   -3.8873  -18.0946   15.5586 C   0  0  0  0  0  0  0  0  0  0  0  0
   -3.7058  -19.5675   15.8235 C   0  0  0  0  0  0  0  0  0  0  0  0
   -4.3160  -19.9018   17.2206 C   0  0  0  0  0  0  0  0  0  0  0  0
   -3.9889  -21.2742   17.8084 C   0  0  0  0  0  0  0  0  0  0  0  0
   -2.5848  -21.6229   17.6726 N   0  0  0  0  0  0  0  0  0  0  0  0
   -2.1498  -21.4995   16.2843 C   0  0  0  0  0  0  0  0  0  0  0  0
   -2.2531  -20.0452   15.8191 C   0  0  0  0  0  0  0  0  0  0  0  0
   -3.1241  -17.4463   14.5926 O   0  0  0  0  0  0  0  0  0  0  0  0
   -0.0864  -14.4111   12.1000 C   0  0  0  0  0  0  0  0  0  0  0  0
    0.6922  -13.5434   11.5131 N   0  0  0  0  0  0  0  0  0  0  0  0
    0.6274  -11.4152   11.3953 H   0  0  0  0  0  0  0  0  0  0  0  0
    0.7240  -12.2355   13.6650 H   0  0  0  0  0  0  0  0  0  0  0  0
   -1.3132  -14.0771   15.4805 H   0  0  0  0  0  0  0  0  0  0  0  0
   -2.9140  -14.2187   14.0254 H   0  0  0  0  0  0  0  0  0  0  0  0
   -4.1729  -20.0676   14.9845 H   0  0  0  0  0  0  0  0  0  0  0  0
   -5.3983  -19.7551   17.2286 H   0  0  0  0  0  0  0  0  0  0  0  0
   -3.9265  -19.1674   17.9428 H   0  0  0  0  0  0  0  0  0  0  0  0
   -4.2446  -21.2687   18.8750 H   0  0  0  0  0  0  0  0  0  0  0  0
   -4.5871  -22.0709   17.3857 H   0  0  0  0  0  0  0  0  0  0  0  0
   -2.0190  -21.0149   18.2627 H   0  0  0  0  0  0  0  0  0  0  0  0
   -2.7206  -22.1688   15.6322 H   0  0  0  0  0  0  0  0  0  0  0  0
   -1.1040  -21.8202   16.2209 H   0  0  0  0  0  0  0  0  0  0  0  0
   -1.8179  -19.9650   14.8208 H   0  0  0  0  0  0  0  0  0  0  0  0
   -1.6384  -19.4104   16.4702 H   0  0  0  0  0  0  0  0  0  0  0  0
   -0.1520  -15.4233   11.7393 H   0  0  0  0  0  0  0  0  0  0  0  0
  1  2  2  0
  2  3  1  0
  3  4  1  0
  4  5  1  0
  5  6  2  0
  6  7  1  0
  7  8  2  0
  8  9  1  0
  9 10  1  0
 10 11  1  0
 11 12  1  0
 12 13  1  0
 13 14  1  0
  8 15  1  0
  3 16  1  0
 16 17  2  0
 17  1  1  0
 15  5  1  0
 14  9  1  0
  1 18  1  0
  2 19  1  0
  4 20  1  0
  4 21  1  0
  9 22  1  0
 10 23  1  0
 10 24  1  0
 11 25  1  0
 11 26  1  0
 12 27  1  0
 13 28  1  0
 13 29  1  0
 14 30  1  0
 14 31  1  0
 16 32  1  0
M  END
>  <Energy>  (1224) 
274.19466706382389

>  <compound_id>  (1224) 
17740

>  <target_id>  (1224) 
1

>  <reference_id>  (1224) 
9

>  <inspiration_ids>  (1224) 
[63, 9]

>  <energy_score>  (1224) 
232.93393203208296

>  <distance_score>  (1224) 
13.436490341520456

>  <path>  (1224) 
/opt/xchem-fragalysis-2/maxwin/BulkDock/SCRATCH/511014/C17740-P9/C17740-P9.minimised.mol

>  <scratch_subdir>  (1224) 
/opt/xchem-fragalysis-2/maxwin/BulkDock/SCRATCH/511014/C17740-P9

>  <fragmenstein_runtime>  (1224) 
8.778344869613647

>  <fragmenstein_outcome>  (1224) 
too moved

>  <fragmenstein_mode>  (1224) 
expansion

>  <fragmenstein_error>  (1224) 


$$$$
C17735-P63
     RDKit          3D

 29 31  0  0  0  0  0  0  0  0999 V2000
    3.2341  -16.2243    9.0820 C   0  0  0  0  0  0  0  0  0  0  0  0
    3.8745  -17.1854    9.8258 C   0  0  0  0  0  0  0  0  0  0  0  0
    2.8669  -17.9829   10.3158 N   0  0  0  0  0  0  0  0  0  0  0  0
    1.6761  -17.5869    9.7419 C   0  0  0  0  0  0  0  0  0  0  0  0
    0.4360  -18.3762    9.7769 C   0  0  0  0  0  0  0  0  0  0  0  0
   -0.7148  -17.9745    9.2594 N   0  0  0  0  0  0  0  0  0  0  0  0
   -1.6399  -19.0096    9.3793 N   0  0  0  0  0  0  0  0  0  0  0  0
   -1.0174  -20.0151    9.9555 C   0  0  0  0  0  0  0  0  0  0  0  0
   -1.4834  -21.4477   10.0991 C   0  0  0  0  0  0  0  0  0  0  0  0
   -3.0159  -21.5980   10.0927 C   0  0  0  0  0  0  0  0  0  0  0  0
   -3.3762  -23.0659   10.3264 C   0  0  0  0  0  0  0  0  0  0  0  0
   -2.9362  -23.5846   11.6226 N   0  0  0  0  0  0  0  0  0  0  0  0
   -1.8836  -22.7752   12.2472 C   0  0  0  0  0  0  0  0  0  0  0  0
   -0.8540  -22.2212   11.2699 C   0  0  0  0  0  0  0  0  0  0  0  0
    0.3013  -19.6896   10.2560 O   0  0  0  0  0  0  0  0  0  0  0  0
    1.8783  -16.4544    9.0777 N   0  0  0  0  0  0  0  0  0  0  0  0
    3.6628  -15.3821    8.5540 H   0  0  0  0  0  0  0  0  0  0  0  0
    4.9129  -17.3559   10.0699 H   0  0  0  0  0  0  0  0  0  0  0  0
    2.9784  -18.8009   10.8987 H   0  0  0  0  0  0  0  0  0  0  0  0
   -1.1191  -21.9351    9.1816 H   0  0  0  0  0  0  0  0  0  0  0  0
   -3.4705  -20.9560   10.8575 H   0  0  0  0  0  0  0  0  0  0  0  0
   -3.4190  -21.2700    9.1267 H   0  0  0  0  0  0  0  0  0  0  0  0
   -2.9051  -23.6749    9.5447 H   0  0  0  0  0  0  0  0  0  0  0  0
   -4.4483  -23.2354   10.2161 H   0  0  0  0  0  0  0  0  0  0  0  0
   -3.7339  -23.4765   12.2677 H   0  0  0  0  0  0  0  0  0  0  0  0
   -2.3188  -21.9254   12.7855 H   0  0  0  0  0  0  0  0  0  0  0  0
   -1.3796  -23.3889   13.0021 H   0  0  0  0  0  0  0  0  0  0  0  0
   -0.2745  -23.0609   10.8625 H   0  0  0  0  0  0  0  0  0  0  0  0
   -0.1373  -21.6059   11.8263 H   0  0  0  0  0  0  0  0  0  0  0  0
  1  2  2  0
  2  3  1  0
  3  4  1  0
  4  5  1  0
  5  6  2  0
  6  7  1  0
  7  8  2  0
  8  9  1  0
  9 10  1  0
 10 11  1  0
 11 12  1  0
 12 13  1  0
 13 14  1  0
  8 15  1  0
  4 16  2  0
 16  1  1  0
 15  5  1  0
 14  9  1  0
  1 17  1  0
  2 18  1  0
  3 19  1  0
  9 20  1  0
 10 21  1  0
 10 22  1  0
 11 23  1  0
 11 24  1  0
 12 25  1  0
 13 26  1  0
 13 27  1  0
 14 28  1  0
 14 29  1  0
M  END
>  <Energy>  (1225) 
29.013727455030548

>  <compound_id>  (1225) 
17735

>  <target_id>  (1225) 
1

>  <reference_id>  (1225) 
63

>  <inspiration_ids>  (1225) 
[63, 9]

>  <energy_score>  (1225) 
-24.076234193363774

>  <distance_score>  (1225) 
14.360330279220703

>  <path>  (1225) 
/opt/xchem-fragalysis-2/maxwin/BulkDock/SCRATCH/511014/C17735-P63/C17735-P63.minimised.mol

>  <scratch_subdir>  (1225) 
/opt/xchem-fragalysis-2/maxwin/BulkDock/SCRATCH/511014/C17735-P63

>  <fragmenstein_runtime>  (1225) 
6.636211633682251

>  <fragmenstein_outcome>  (1225) 
too moved

>  <fragmenstein_mode>  (1225) 
expansion

>  <fragmenstein_error>  (1225) 


$$$$
C17735-P9
     RDKit          3D

 29 31  0  0  0  0  0  0  0  0999 V2000
    0.6918  -12.0413   11.5961 C   0  0  0  0  0  0  0  0  0  0  0  0
   -0.2218  -12.0679   12.5295 C   0  0  0  0  0  0  0  0  0  0  0  0
   -0.2817  -13.3835   12.8813 N   0  0  0  0  0  0  0  0  0  0  0  0
   -0.0295  -14.1187   11.7711 C   0  0  0  0  0  0  0  0  0  0  0  0
   -0.7845  -15.2777   11.0144 C   0  0  0  0  0  0  0  0  0  0  0  0
   -0.2410  -16.4078   10.5271 N   0  0  0  0  0  0  0  0  0  0  0  0
   -1.2124  -17.1195    9.6586 N   0  0  0  0  0  0  0  0  0  0  0  0
   -2.3646  -16.4338    9.6303 C   0  0  0  0  0  0  0  0  0  0  0  0
   -3.7931  -16.9907    9.1772 C   0  0  0  0  0  0  0  0  0  0  0  0
   -4.3474  -16.4114    7.8875 C   0  0  0  0  0  0  0  0  0  0  0  0
   -5.5746  -17.2096    7.3952 C   0  0  0  0  0  0  0  0  0  0  0  0
   -6.4712  -17.7191    8.4326 N   0  0  0  0  0  0  0  0  0  0  0  0
   -6.3743  -16.9636    9.6596 C   0  0  0  0  0  0  0  0  0  0  0  0
   -4.9632  -17.0580   10.2248 C   0  0  0  0  0  0  0  0  0  0  0  0
   -2.1981  -15.2609   10.4850 O   0  0  0  0  0  0  0  0  0  0  0  0
    0.9862  -13.3620   11.3770 N   0  0  0  0  0  0  0  0  0  0  0  0
    1.2152  -11.1696   11.2223 H   0  0  0  0  0  0  0  0  0  0  0  0
   -0.8055  -11.2897   12.9566 H   0  0  0  0  0  0  0  0  0  0  0  0
   -0.8321  -13.6227   13.6790 H   0  0  0  0  0  0  0  0  0  0  0  0
   -3.5588  -18.0441    8.9504 H   0  0  0  0  0  0  0  0  0  0  0  0
   -3.5844  -16.4185    7.1007 H   0  0  0  0  0  0  0  0  0  0  0  0
   -4.6296  -15.3629    8.0482 H   0  0  0  0  0  0  0  0  0  0  0  0
   -6.1408  -16.5711    6.7061 H   0  0  0  0  0  0  0  0  0  0  0  0
   -5.2280  -18.0665    6.8062 H   0  0  0  0  0  0  0  0  0  0  0  0
   -7.4334  -17.6956    8.0907 H   0  0  0  0  0  0  0  0  0  0  0  0
   -7.0864  -17.3552   10.3947 H   0  0  0  0  0  0  0  0  0  0  0  0
   -6.6503  -15.9160    9.4850 H   0  0  0  0  0  0  0  0  0  0  0  0
   -4.8789  -18.0038   10.7767 H   0  0  0  0  0  0  0  0  0  0  0  0
   -4.9112  -16.2453   10.9525 H   0  0  0  0  0  0  0  0  0  0  0  0
  1  2  2  0
  2  3  1  0
  3  4  1  0
  4  5  1  0
  5  6  2  0
  6  7  1  0
  7  8  2  0
  8  9  1  0
  9 10  1  0
 10 11  1  0
 11 12  1  0
 12 13  1  0
 13 14  1  0
  8 15  1  0
  4 16  2  0
 16  1  1  0
 15  5  1  0
 14  9  1  0
  1 17  1  0
  2 18  1  0
  3 19  1  0
  9 20  1  0
 10 21  1  0
 10 22  1  0
 11 23  1  0
 11 24  1  0
 12 25  1  0
 13 26  1  0
 13 27  1  0
 14 28  1  0
 14 29  1  0
M  END
>  <Energy>  (1226) 
97.626372448139364

>  <compound_id>  (1226) 
17735

>  <target_id>  (1226) 
1

>  <reference_id>  (1226) 
9

>  <inspiration_ids>  (1226) 
[63, 9]

>  <energy_score>  (1226) 
44.536410799746704

>  <distance_score>  (1226) 
14.260190986621422

>  <path>  (1226) 
/opt/xchem-fragalysis-2/maxwin/BulkDock/SCRATCH/511014/C17735-P9/C17735-P9.minimised.mol

>  <scratch_subdir>  (1226) 
/opt/xchem-fragalysis-2/maxwin/BulkDock/SCRATCH/511014/C17735-P9

>  <fragmenstein_runtime>  (1226) 
5.585373878479004

>  <fragmenstein_outcome>  (1226) 
too moved

>  <fragmenstein_mode>  (1226) 
expansion

>  <fragmenstein_error>  (1226) 


$$$$
C17741-P63
     RDKit          3D

 37 39  0  0  0  0  0  0  0  0999 V2000
    4.8110  -18.2845   10.8194 N   0  0  0  0  0  0  0  0  0  0  0  0
    4.2709  -18.4993   12.1908 C   0  0  0  0  0  0  0  0  0  0  0  0
    5.1033  -17.6970   13.3002 C   0  0  0  0  0  0  0  0  0  0  0  0
    6.0013  -16.4424   13.0739 C   0  0  0  0  0  0  0  0  0  0  0  0
    6.6691  -15.9504   11.9654 C   0  0  0  0  0  0  0  0  0  0  0  0
    7.3863  -14.8510   12.3763 N   0  0  0  0  0  0  0  0  0  0  0  0
    7.1992  -14.7184   13.7194 C   0  0  0  0  0  0  0  0  0  0  0  0
    6.3669  -15.6359   14.1693 N   0  0  0  0  0  0  0  0  0  0  0  0
    2.6545  -18.5610   12.1074 C   0  0  0  0  0  0  0  0  0  0  0  0
    1.9070  -17.9015   11.2393 N   0  0  0  0  0  0  0  0  0  0  0  0
    0.5777  -18.2218   11.4749 N   0  0  0  0  0  0  0  0  0  0  0  0
    0.4911  -19.1885   12.3794 C   0  0  0  0  0  0  0  0  0  0  0  0
   -0.7636  -19.3851   13.4914 C   0  0  0  0  0  0  0  0  0  0  0  0
   -1.8161  -20.2375   14.1800 C   0  0  0  0  0  0  0  0  0  0  0  0
   -2.8779  -21.3967   14.0326 C   0  0  0  0  0  0  0  0  0  0  0  0
   -3.5703  -20.8163   12.8995 N   0  0  0  0  0  0  0  0  0  0  0  0
   -3.9104  -19.4581   12.9541 C   0  0  0  0  0  0  0  0  0  0  0  0
   -2.4552  -18.2366   13.9117 C   0  0  0  0  0  0  0  0  0  0  0  0
    1.8432  -19.5224   12.7905 O   0  0  0  0  0  0  0  0  0  0  0  0
    4.4214  -17.3938   10.4999 H   0  0  0  0  0  0  0  0  0  0  0  0
    4.3572  -18.9689   10.2093 H   0  0  0  0  0  0  0  0  0  0  0  0
    4.4951  -19.5536   12.4165 H   0  0  0  0  0  0  0  0  0  0  0  0
    4.4835  -17.5864   14.1906 H   0  0  0  0  0  0  0  0  0  0  0  0
    5.8634  -18.4285   13.6254 H   0  0  0  0  0  0  0  0  0  0  0  0
    6.7095  -16.2925   10.9407 H   0  0  0  0  0  0  0  0  0  0  0  0
    7.9863  -14.2803   11.7968 H   0  0  0  0  0  0  0  0  0  0  0  0
    7.6829  -13.9495   14.3067 H   0  0  0  0  0  0  0  0  0  0  0  0
    0.1745  -19.0528   14.1093 H   0  0  0  0  0  0  0  0  0  0  0  0
   -0.7653  -21.0855   13.9746 H   0  0  0  0  0  0  0  0  0  0  0  0
   -1.9316  -19.5515   14.9981 H   0  0  0  0  0  0  0  0  0  0  0  0
   -2.4265  -22.4229   13.9309 H   0  0  0  0  0  0  0  0  0  0  0  0
   -3.3197  -21.8134   14.9281 H   0  0  0  0  0  0  0  0  0  0  0  0
   -4.3436  -21.3762   12.5305 H   0  0  0  0  0  0  0  0  0  0  0  0
   -4.9670  -19.3560   13.3085 H   0  0  0  0  0  0  0  0  0  0  0  0
   -3.9576  -19.3831   11.8953 H   0  0  0  0  0  0  0  0  0  0  0  0
   -3.0453  -17.3010   14.1972 H   0  0  0  0  0  0  0  0  0  0  0  0
   -2.2733  -18.1067   15.0126 H   0  0  0  0  0  0  0  0  0  0  0  0
  1  2  1  0
  2  3  1  0
  3  4  1  0
  4  5  2  0
  5  6  1  0
  6  7  1  0
  7  8  2  0
  2  9  1  0
  9 10  2  0
 10 11  1  0
 11 12  2  0
 12 13  1  0
 13 14  1  0
 14 15  1  0
 15 16  1  0
 16 17  1  0
 17 18  1  0
 12 19  1  0
  8  4  1  0
 19  9  1  0
 18 13  1  0
  1 20  1  0
  1 21  1  0
  2 22  1  0
  3 23  1  0
  3 24  1  0
  5 25  1  0
  6 26  1  0
  7 27  1  0
 13 28  1  0
 14 29  1  0
 14 30  1  0
 15 31  1  0
 15 32  1  0
 16 33  1  0
 17 34  1  0
 17 35  1  0
 18 36  1  0
 18 37  1  0
M  END
>  <Energy>  (1227) 
512.24908647411064

>  <compound_id>  (1227) 
17741

>  <target_id>  (1227) 
1

>  <reference_id>  (1227) 
63

>  <inspiration_ids>  (1227) 
[63, 9]

>  <energy_score>  (1227) 
436.31943734957633

>  <distance_score>  (1227) 
13.504287740548405

>  <path>  (1227) 
/opt/xchem-fragalysis-2/maxwin/BulkDock/SCRATCH/511014/C17741-P63/C17741-P63.minimised.mol

>  <scratch_subdir>  (1227) 
/opt/xchem-fragalysis-2/maxwin/BulkDock/SCRATCH/511014/C17741-P63

>  <fragmenstein_runtime>  (1227) 
10.727182149887085

>  <fragmenstein_outcome>  (1227) 
too moved

>  <fragmenstein_mode>  (1227) 
expansion

>  <fragmenstein_error>  (1227) 


$$$$
C17741-P9
     RDKit          3D

 37 39  0  0  0  0  0  0  0  0999 V2000
    3.9491  -20.7096   13.5282 N   0  0  0  0  0  0  0  0  0  0  0  0
    3.0646  -19.6877   14.1453 C   0  0  0  0  0  0  0  0  0  0  0  0
    3.8163  -18.2600   14.2316 C   0  0  0  0  0  0  0  0  0  0  0  0
    5.2032  -17.8081   14.7309 C   0  0  0  0  0  0  0  0  0  0  0  0
    6.4107  -17.8205   14.0498 C   0  0  0  0  0  0  0  0  0  0  0  0
    7.2451  -16.9430   14.6972 N   0  0  0  0  0  0  0  0  0  0  0  0
    6.5555  -16.4158   15.7463 C   0  0  0  0  0  0  0  0  0  0  0  0
    5.3227  -16.8747   15.7767 N   0  0  0  0  0  0  0  0  0  0  0  0
    1.6197  -19.6517   13.2934 C   0  0  0  0  0  0  0  0  0  0  0  0
    1.3924  -18.8748   12.2793 N   0  0  0  0  0  0  0  0  0  0  0  0
    0.0509  -18.7297   12.1661 N   0  0  0  0  0  0  0  0  0  0  0  0
   -0.7690  -19.6352   12.8331 C   0  0  0  0  0  0  0  0  0  0  0  0
   -2.9154  -20.3574   12.3619 C   0  0  0  0  0  0  0  0  0  0  0  0
   -3.8581  -20.8666   10.7326 C   0  0  0  0  0  0  0  0  0  0  0  0
   -4.3683  -22.3167   10.7393 C   0  0  0  0  0  0  0  0  0  0  0  0
   -5.6606  -22.3137   11.4281 N   0  0  0  0  0  0  0  0  0  0  0  0
   -5.7641  -21.1009   12.2739 C   0  0  0  0  0  0  0  0  0  0  0  0
   -4.3797  -20.5701   12.9658 C   0  0  0  0  0  0  0  0  0  0  0  0
    0.4530  -20.5478   13.3885 O   0  0  0  0  0  0  0  0  0  0  0  0
    3.3999  -21.5668   13.4528 H   0  0  0  0  0  0  0  0  0  0  0  0
    4.1005  -20.4108   12.5628 H   0  0  0  0  0  0  0  0  0  0  0  0
    2.8075  -20.0130   15.1602 H   0  0  0  0  0  0  0  0  0  0  0  0
    3.8532  -17.9149   13.1918 H   0  0  0  0  0  0  0  0  0  0  0  0
    3.1534  -17.6746   14.8734 H   0  0  0  0  0  0  0  0  0  0  0  0
    6.7077  -18.3189   13.1377 H   0  0  0  0  0  0  0  0  0  0  0  0
    8.2009  -16.7355   14.4446 H   0  0  0  0  0  0  0  0  0  0  0  0
    6.9899  -15.7099   16.4410 H   0  0  0  0  0  0  0  0  0  0  0  0
   -3.5932  -19.4750   12.0993 H   0  0  0  0  0  0  0  0  0  0  0  0
   -4.7984  -20.4181   10.5821 H   0  0  0  0  0  0  0  0  0  0  0  0
   -3.4147  -20.5028    9.7750 H   0  0  0  0  0  0  0  0  0  0  0  0
   -3.6635  -23.0059   11.2149 H   0  0  0  0  0  0  0  0  0  0  0  0
   -4.5214  -22.6663    9.7130 H   0  0  0  0  0  0  0  0  0  0  0  0
   -5.6087  -23.0967   12.0857 H   0  0  0  0  0  0  0  0  0  0  0  0
   -6.2490  -20.2855   11.7182 H   0  0  0  0  0  0  0  0  0  0  0  0
   -6.5343  -21.2755   13.0319 H   0  0  0  0  0  0  0  0  0  0  0  0
   -3.9313  -21.1706   13.7113 H   0  0  0  0  0  0  0  0  0  0  0  0
   -4.8744  -19.6438   13.2974 H   0  0  0  0  0  0  0  0  0  0  0  0
  1  2  1  0
  2  3  1  0
  3  4  1  0
  4  5  2  0
  5  6  1  0
  6  7  1  0
  7  8  2  0
  2  9  1  0
  9 10  2  0
 10 11  1  0
 11 12  2  0
 12 13  1  0
 13 14  1  0
 14 15  1  0
 15 16  1  0
 16 17  1  0
 17 18  1  0
 12 19  1  0
  8  4  1  0
 19  9  1  0
 18 13  1  0
  1 20  1  0
  1 21  1  0
  2 22  1  0
  3 23  1  0
  3 24  1  0
  5 25  1  0
  6 26  1  0
  7 27  1  0
 13 28  1  0
 14 29  1  0
 14 30  1  0
 15 31  1  0
 15 32  1  0
 16 33  1  0
 17 34  1  0
 17 35  1  0
 18 36  1  0
 18 37  1  0
M  END
>  <Energy>  (1228) 
574.24718172262124

>  <compound_id>  (1228) 
17741

>  <target_id>  (1228) 
1

>  <reference_id>  (1228) 
9

>  <inspiration_ids>  (1228) 
[63, 9]

>  <energy_score>  (1228) 
498.31753259808426

>  <distance_score>  (1228) 
13.41705279284596

>  <path>  (1228) 
/opt/xchem-fragalysis-2/maxwin/BulkDock/SCRATCH/511014/C17741-P9/C17741-P9.minimised.mol

>  <scratch_subdir>  (1228) 
/opt/xchem-fragalysis-2/maxwin/BulkDock/SCRATCH/511014/C17741-P9

>  <fragmenstein_runtime>  (1228) 
10.662413597106934

>  <fragmenstein_outcome>  (1228) 
too moved

>  <fragmenstein_mode>  (1228) 
expansion

>  <fragmenstein_error>  (1228) 


$$$$
C17742-P63
     RDKit          3D

 50 51  0  0  0  0  0  0  0  0999 V2000
   -6.6559  -14.9254   10.9916 C   0  0  0  0  0  0  0  0  0  0  0  0
   -5.6934  -15.4014   12.1704 C   0  0  0  0  0  0  0  0  0  0  0  0
   -6.5324  -17.1517   12.7454 C   0  0  0  0  0  0  0  0  0  0  0  0
   -6.8737  -19.0276   12.0724 C   0  0  0  0  0  0  0  0  0  0  0  0
   -8.4680  -19.7333   11.5887 C   0  0  0  0  0  0  0  0  0  0  0  0
   -9.0625  -21.1596   11.6923 C   0  0  0  0  0  0  0  0  0  0  0  0
   -8.2652  -22.1836   12.2555 N   0  0  0  0  0  0  0  0  0  0  0  0
   -7.1961  -21.6226   13.0986 C   0  0  0  0  0  0  0  0  0  0  0  0
   -6.1961  -20.2027   12.9244 C   0  0  0  0  0  0  0  0  0  0  0  0
   -3.7953  -14.7145   12.3027 N   0  0  0  0  0  0  0  0  0  0  0  0
   -2.4320  -14.8004   11.1334 C   0  0  0  0  0  0  0  0  0  0  0  0
   -2.4843  -15.2727   10.0191 O   0  0  0  0  0  0  0  0  0  0  0  0
   -0.6429  -14.0665   11.6399 C   0  0  0  0  0  0  0  0  0  0  0  0
    0.0558  -14.8369   12.2472 O   0  0  0  0  0  0  0  0  0  0  0  0
   -0.3149  -12.4431   11.3001 N   0  0  0  0  0  0  0  0  0  0  0  0
    0.7774  -11.5808   11.7158 C   0  0  0  0  0  0  0  0  0  0  0  0
    2.2096  -11.0537   11.0040 C   0  0  0  0  0  0  0  0  0  0  0  0
    2.3036   -9.7336   10.1739 C   0  0  0  0  0  0  0  0  0  0  0  0
    1.4787   -8.6253   10.0869 C   0  0  0  0  0  0  0  0  0  0  0  0
    2.2236   -7.6523    9.4744 N   0  0  0  0  0  0  0  0  0  0  0  0
    1.8274   -6.2893    9.2350 C   0  0  0  0  0  0  0  0  0  0  0  0
    3.4102   -8.2045    9.1088 C   0  0  0  0  0  0  0  0  0  0  0  0
    3.4735   -9.4629    9.4842 N   0  0  0  0  0  0  0  0  0  0  0  0
   -7.6716  -15.2148   11.2660 H   0  0  0  0  0  0  0  0  0  0  0  0
   -6.4081  -15.3296   10.0096 H   0  0  0  0  0  0  0  0  0  0  0  0
   -6.7496  -13.8347   10.9096 H   0  0  0  0  0  0  0  0  0  0  0  0
   -6.1308  -14.7040   12.8647 H   0  0  0  0  0  0  0  0  0  0  0  0
   -6.1000  -17.3144   13.7451 H   0  0  0  0  0  0  0  0  0  0  0  0
   -7.5453  -16.7981   12.9876 H   0  0  0  0  0  0  0  0  0  0  0  0
   -6.3298  -19.2878   11.1997 H   0  0  0  0  0  0  0  0  0  0  0  0
   -9.2671  -19.1050   11.9930 H   0  0  0  0  0  0  0  0  0  0  0  0
   -8.4813  -19.6976   10.5081 H   0  0  0  0  0  0  0  0  0  0  0  0
   -9.9893  -21.1072   12.2776 H   0  0  0  0  0  0  0  0  0  0  0  0
   -9.3874  -21.5057   10.7038 H   0  0  0  0  0  0  0  0  0  0  0  0
   -8.8444  -22.8236   12.7927 H   0  0  0  0  0  0  0  0  0  0  0  0
   -7.5577  -21.7719   14.1091 H   0  0  0  0  0  0  0  0  0  0  0  0
   -6.5482  -22.4435   13.0036 H   0  0  0  0  0  0  0  0  0  0  0  0
   -5.8818  -19.7538   13.8623 H   0  0  0  0  0  0  0  0  0  0  0  0
   -5.2007  -20.4254   12.5150 H   0  0  0  0  0  0  0  0  0  0  0  0
   -3.5093  -14.2118   13.1013 H   0  0  0  0  0  0  0  0  0  0  0  0
   -1.0094  -12.0858   10.7273 H   0  0  0  0  0  0  0  0  0  0  0  0
    0.2144  -10.6374   11.7172 H   0  0  0  0  0  0  0  0  0  0  0  0
    0.8250  -11.8844   12.7392 H   0  0  0  0  0  0  0  0  0  0  0  0
    2.7287  -11.8781   10.4905 H   0  0  0  0  0  0  0  0  0  0  0  0
    2.8745  -10.7801   11.7899 H   0  0  0  0  0  0  0  0  0  0  0  0
    0.4962   -8.4251   10.4905 H   0  0  0  0  0  0  0  0  0  0  0  0
    2.5388   -5.6289    9.7377 H   0  0  0  0  0  0  0  0  0  0  0  0
    0.8228   -6.1245    9.6326 H   0  0  0  0  0  0  0  0  0  0  0  0
    1.8347   -6.1102    8.1569 H   0  0  0  0  0  0  0  0  0  0  0  0
    4.1832   -7.6645    8.5775 H   0  0  0  0  0  0  0  0  0  0  0  0
  1  2  1  0
  2  3  1  0
  3  4  1  0
  4  5  1  0
  5  6  1  0
  6  7  1  0
  7  8  1  0
  8  9  1  0
  2 10  1  0
 10 11  1  0
 11 12  2  0
 11 13  1  0
 13 14  2  0
 13 15  1  0
 15 16  1  0
 16 17  1  0
 17 18  1  0
 18 19  2  0
 19 20  1  0
 20 21  1  0
 20 22  1  0
 22 23  2  0
  9  4  1  0
 23 18  1  0
  1 24  1  0
  1 25  1  0
  1 26  1  0
  2 27  1  0
  3 28  1  0
  3 29  1  0
  4 30  1  0
  5 31  1  0
  5 32  1  0
  6 33  1  0
  6 34  1  0
  7 35  1  0
  8 36  1  0
  8 37  1  0
  9 38  1  0
  9 39  1  0
 10 40  1  0
 15 41  1  0
 16 42  1  0
 16 43  1  0
 17 44  1  0
 17 45  1  0
 19 46  1  0
 21 47  1  0
 21 48  1  0
 21 49  1  0
 22 50  1  0
M  END
>  <Energy>  (1229) 
535.82847212403328

>  <compound_id>  (1229) 
17742

>  <target_id>  (1229) 
1

>  <reference_id>  (1229) 
63

>  <inspiration_ids>  (1229) 
[63, 9]

>  <energy_score>  (1229) 
458.5279358897873

>  <distance_score>  (1229) 
10.655058037686397

>  <path>  (1229) 
/opt/xchem-fragalysis-2/maxwin/BulkDock/SCRATCH/511014/C17742-P63/C17742-P63.minimised.mol

>  <scratch_subdir>  (1229) 
/opt/xchem-fragalysis-2/maxwin/BulkDock/SCRATCH/511014/C17742-P63

>  <fragmenstein_runtime>  (1229) 
32.6800651550293

>  <fragmenstein_outcome>  (1229) 
too moved

>  <fragmenstein_mode>  (1229) 
expansion

>  <fragmenstein_error>  (1229) 


$$$$
C17742-P9
     RDKit          3D

 50 51  0  0  0  0  0  0  0  0999 V2000
   -3.9580  -14.8168   13.1261 C   0  0  0  0  0  0  0  0  0  0  0  0
   -2.8555  -15.0690   14.7950 C   0  0  0  0  0  0  0  0  0  0  0  0
   -3.7354  -16.4855   15.6944 C   0  0  0  0  0  0  0  0  0  0  0  0
   -5.1977  -16.8483   16.1650 C   0  0  0  0  0  0  0  0  0  0  0  0
   -5.2982  -17.9878   17.2054 C   0  0  0  0  0  0  0  0  0  0  0  0
   -6.6768  -17.9906   17.9054 C   0  0  0  0  0  0  0  0  0  0  0  0
   -7.7040  -17.1408   17.3140 N   0  0  0  0  0  0  0  0  0  0  0  0
   -7.6146  -16.7945   15.8932 C   0  0  0  0  0  0  0  0  0  0  0  0
   -6.2893  -17.1345   15.1681 C   0  0  0  0  0  0  0  0  0  0  0  0
   -1.2541  -14.0547   14.7229 N   0  0  0  0  0  0  0  0  0  0  0  0
   -0.2430  -13.4253   13.2706 C   0  0  0  0  0  0  0  0  0  0  0  0
   -0.4310  -13.6540   12.0950 O   0  0  0  0  0  0  0  0  0  0  0  0
    1.3260  -12.4065   13.9094 C   0  0  0  0  0  0  0  0  0  0  0  0
    1.7448  -12.9042   14.8565 O   0  0  0  0  0  0  0  0  0  0  0  0
    2.0628  -10.9369   13.4706 N   0  0  0  0  0  0  0  0  0  0  0  0
    3.3921   -9.8603   14.3442 C   0  0  0  0  0  0  0  0  0  0  0  0
    2.7769   -8.1112   15.4371 C   0  0  0  0  0  0  0  0  0  0  0  0
    2.8321   -6.3920   15.2839 C   0  0  0  0  0  0  0  0  0  0  0  0
    2.6647   -5.5786   14.1709 C   0  0  0  0  0  0  0  0  0  0  0  0
    3.0679   -4.3351   14.5699 N   0  0  0  0  0  0  0  0  0  0  0  0
    3.1230   -3.1520   13.7494 C   0  0  0  0  0  0  0  0  0  0  0  0
    3.4075   -4.4070   15.8887 C   0  0  0  0  0  0  0  0  0  0  0  0
    3.3100   -5.6365   16.3480 N   0  0  0  0  0  0  0  0  0  0  0  0
   -3.4642  -14.9073   12.1272 H   0  0  0  0  0  0  0  0  0  0  0  0
   -3.9915  -13.7707   13.3165 H   0  0  0  0  0  0  0  0  0  0  0  0
   -4.9331  -15.3355   13.1154 H   0  0  0  0  0  0  0  0  0  0  0  0
   -3.1964  -14.4706   15.7179 H   0  0  0  0  0  0  0  0  0  0  0  0
   -3.3799  -17.3366   15.1845 H   0  0  0  0  0  0  0  0  0  0  0  0
   -3.3937  -16.3625   16.7240 H   0  0  0  0  0  0  0  0  0  0  0  0
   -5.5191  -16.0535   16.8289 H   0  0  0  0  0  0  0  0  0  0  0  0
   -5.0705  -18.9623   16.7678 H   0  0  0  0  0  0  0  0  0  0  0  0
   -4.5638  -17.8083   17.9813 H   0  0  0  0  0  0  0  0  0  0  0  0
   -7.0258  -19.0205   18.0325 H   0  0  0  0  0  0  0  0  0  0  0  0
   -6.5312  -17.6305   18.9320 H   0  0  0  0  0  0  0  0  0  0  0  0
   -8.6447  -17.4128   17.5881 H   0  0  0  0  0  0  0  0  0  0  0  0
   -8.4834  -17.1528   15.3460 H   0  0  0  0  0  0  0  0  0  0  0  0
   -7.7399  -15.7045   15.8590 H   0  0  0  0  0  0  0  0  0  0  0  0
   -6.1278  -18.1507   14.8344 H   0  0  0  0  0  0  0  0  0  0  0  0
   -6.2611  -16.6225   14.2112 H   0  0  0  0  0  0  0  0  0  0  0  0
   -0.8192  -13.7744   15.5950 H   0  0  0  0  0  0  0  0  0  0  0  0
    1.6594  -10.6439   12.5623 H   0  0  0  0  0  0  0  0  0  0  0  0
    4.1815   -9.6857   13.6149 H   0  0  0  0  0  0  0  0  0  0  0  0
    3.8291  -10.6097   15.0508 H   0  0  0  0  0  0  0  0  0  0  0  0
    1.6877   -7.9385   15.3722 H   0  0  0  0  0  0  0  0  0  0  0  0
    3.6257   -7.5652   14.9497 H   0  0  0  0  0  0  0  0  0  0  0  0
    2.3625   -5.7900   13.1546 H   0  0  0  0  0  0  0  0  0  0  0  0
    2.7495   -3.3825   12.7485 H   0  0  0  0  0  0  0  0  0  0  0  0
    4.1632   -2.8228   13.6896 H   0  0  0  0  0  0  0  0  0  0  0  0
    2.4989   -2.3825   14.2099 H   0  0  0  0  0  0  0  0  0  0  0  0
    3.7082   -3.5404   16.4593 H   0  0  0  0  0  0  0  0  0  0  0  0
  1  2  1  0
  2  3  1  0
  3  4  1  0
  4  5  1  0
  5  6  1  0
  6  7  1  0
  7  8  1  0
  8  9  1  0
  2 10  1  0
 10 11  1  0
 11 12  2  0
 11 13  1  0
 13 14  2  0
 13 15  1  0
 15 16  1  0
 16 17  1  0
 17 18  1  0
 18 19  2  0
 19 20  1  0
 20 21  1  0
 20 22  1  0
 22 23  2  0
  9  4  1  0
 23 18  1  0
  1 24  1  0
  1 25  1  0
  1 26  1  0
  2 27  1  0
  3 28  1  0
  3 29  1  0
  4 30  1  0
  5 31  1  0
  5 32  1  0
  6 33  1  0
  6 34  1  0
  7 35  1  0
  8 36  1  0
  8 37  1  0
  9 38  1  0
  9 39  1  0
 10 40  1  0
 15 41  1  0
 16 42  1  0
 16 43  1  0
 17 44  1  0
 17 45  1  0
 19 46  1  0
 21 47  1  0
 21 48  1  0
 21 49  1  0
 22 50  1  0
M  END
>  <Energy>  (1230) 
672.81242516455109

>  <compound_id>  (1230) 
17742

>  <target_id>  (1230) 
1

>  <reference_id>  (1230) 
9

>  <inspiration_ids>  (1230) 
[63, 9]

>  <energy_score>  (1230) 
595.5118889302985

>  <distance_score>  (1230) 
10.730362873039022

>  <path>  (1230) 
/opt/xchem-fragalysis-2/maxwin/BulkDock/SCRATCH/511014/C17742-P9/C17742-P9.minimised.mol

>  <scratch_subdir>  (1230) 
/opt/xchem-fragalysis-2/maxwin/BulkDock/SCRATCH/511014/C17742-P9

>  <fragmenstein_runtime>  (1230) 
18.97211265563965

>  <fragmenstein_outcome>  (1230) 
too moved

>  <fragmenstein_mode>  (1230) 
expansion

>  <fragmenstein_error>  (1230) 


$$$$
C17745-P63
     RDKit          3D

 29 31  0  0  0  0  0  0  0  0999 V2000
    2.1181  -17.7744   10.3338 C   0  0  0  0  0  0  0  0  0  0  0  0
    2.7919  -18.1849   11.4555 C   0  0  0  0  0  0  0  0  0  0  0  0
    1.8621  -18.8905   12.1781 N   0  0  0  0  0  0  0  0  0  0  0  0
    0.7257  -19.0441   11.4102 C   0  0  0  0  0  0  0  0  0  0  0  0
   -0.5730  -19.9830   11.8500 C   0  0  0  0  0  0  0  0  0  0  0  0
   -0.6922  -20.4886   13.0945 N   0  0  0  0  0  0  0  0  0  0  0  0
   -2.0311  -20.9700   13.1447 O   0  0  0  0  0  0  0  0  0  0  0  0
   -2.5906  -20.7264   11.9223 C   0  0  0  0  0  0  0  0  0  0  0  0
   -4.0305  -21.1489   11.6432 C   0  0  0  0  0  0  0  0  0  0  0  0
   -5.3395  -20.5713   12.7191 C   0  0  0  0  0  0  0  0  0  0  0  0
   -6.7698  -21.7708   12.9331 C   0  0  0  0  0  0  0  0  0  0  0  0
   -6.4504  -23.3826   12.1707 N   0  0  0  0  0  0  0  0  0  0  0  0
   -5.0807  -23.7986   11.5759 C   0  0  0  0  0  0  0  0  0  0  0  0
   -3.9974  -22.7105   11.1452 C   0  0  0  0  0  0  0  0  0  0  0  0
   -1.7117  -20.1971   11.0739 N   0  0  0  0  0  0  0  0  0  0  0  0
    0.8486  -18.3116   10.3099 N   0  0  0  0  0  0  0  0  0  0  0  0
    2.4736  -17.1443    9.5293 H   0  0  0  0  0  0  0  0  0  0  0  0
    3.7849  -17.9971   11.8351 H   0  0  0  0  0  0  0  0  0  0  0  0
    1.9752  -19.2355   13.1223 H   0  0  0  0  0  0  0  0  0  0  0  0
   -4.2109  -20.5549   10.7289 H   0  0  0  0  0  0  0  0  0  0  0  0
   -5.7770  -19.6698   12.2656 H   0  0  0  0  0  0  0  0  0  0  0  0
   -4.8779  -20.2068   13.6387 H   0  0  0  0  0  0  0  0  0  0  0  0
   -7.2794  -21.9099   13.8785 H   0  0  0  0  0  0  0  0  0  0  0  0
   -7.6405  -21.4097   12.3491 H   0  0  0  0  0  0  0  0  0  0  0  0
   -7.2911  -23.6536   11.6519 H   0  0  0  0  0  0  0  0  0  0  0  0
   -4.6054  -24.5254   12.2380 H   0  0  0  0  0  0  0  0  0  0  0  0
   -5.3098  -24.3972   10.6846 H   0  0  0  0  0  0  0  0  0  0  0  0
   -3.0176  -23.1374   11.4042 H   0  0  0  0  0  0  0  0  0  0  0  0
   -3.9940  -22.6775   10.0455 H   0  0  0  0  0  0  0  0  0  0  0  0
  1  2  2  0
  2  3  1  0
  3  4  1  0
  4  5  1  0
  5  6  2  0
  6  7  1  0
  7  8  1  0
  8  9  1  0
  9 10  1  0
 10 11  1  0
 11 12  1  0
 12 13  1  0
 13 14  1  0
  8 15  2  0
  4 16  2  0
 16  1  1  0
 15  5  1  0
 14  9  1  0
  1 17  1  0
  2 18  1  0
  3 19  1  0
  9 20  1  0
 10 21  1  0
 10 22  1  0
 11 23  1  0
 11 24  1  0
 12 25  1  0
 13 26  1  0
 13 27  1  0
 14 28  1  0
 14 29  1  0
M  END
>  <Energy>  (1231) 
138.53813940070225

>  <compound_id>  (1231) 
17745

>  <target_id>  (1231) 
1

>  <reference_id>  (1231) 
63

>  <inspiration_ids>  (1231) 
[63, 9]

>  <energy_score>  (1231) 
86.00346596455557

>  <distance_score>  (1231) 
13.934183924385119

>  <path>  (1231) 
/opt/xchem-fragalysis-2/maxwin/BulkDock/SCRATCH/511014/C17745-P63/C17745-P63.minimised.mol

>  <scratch_subdir>  (1231) 
/opt/xchem-fragalysis-2/maxwin/BulkDock/SCRATCH/511014/C17745-P63

>  <fragmenstein_runtime>  (1231) 
7.437993764877319

>  <fragmenstein_outcome>  (1231) 
too moved

>  <fragmenstein_mode>  (1231) 
expansion

>  <fragmenstein_error>  (1231) 


$$$$
C17745-P9
     RDKit          3D

 29 31  0  0  0  0  0  0  0  0999 V2000
    3.2255  -15.2333   18.6012 C   0  0  0  0  0  0  0  0  0  0  0  0
    2.6864  -14.3355   19.4864 C   0  0  0  0  0  0  0  0  0  0  0  0
    1.4734  -14.8764   19.8330 N   0  0  0  0  0  0  0  0  0  0  0  0
    1.3300  -16.0985   19.2009 C   0  0  0  0  0  0  0  0  0  0  0  0
   -0.0010  -17.0789   19.3565 C   0  0  0  0  0  0  0  0  0  0  0  0
   -1.0509  -16.7125   20.1132 N   0  0  0  0  0  0  0  0  0  0  0  0
   -2.0246  -17.6926   19.8487 O   0  0  0  0  0  0  0  0  0  0  0  0
   -1.4817  -18.6024   18.9778 C   0  0  0  0  0  0  0  0  0  0  0  0
   -2.3465  -19.8193   18.6882 C   0  0  0  0  0  0  0  0  0  0  0  0
   -3.8256  -19.4994   18.3930 C   0  0  0  0  0  0  0  0  0  0  0  0
   -4.6692  -20.7877   18.3690 C   0  0  0  0  0  0  0  0  0  0  0  0
   -3.9115  -21.9629   17.9506 N   0  0  0  0  0  0  0  0  0  0  0  0
   -2.8842  -21.6340   16.9665 C   0  0  0  0  0  0  0  0  0  0  0  0
   -1.8042  -20.7237   17.5694 C   0  0  0  0  0  0  0  0  0  0  0  0
   -0.2371  -18.2761   18.6495 N   0  0  0  0  0  0  0  0  0  0  0  0
    2.3914  -16.3206   18.4406 N   0  0  0  0  0  0  0  0  0  0  0  0
    4.1664  -15.1703   18.0727 H   0  0  0  0  0  0  0  0  0  0  0  0
    3.0296  -13.3859   19.8664 H   0  0  0  0  0  0  0  0  0  0  0  0
    0.7784  -14.4707   20.4427 H   0  0  0  0  0  0  0  0  0  0  0  0
   -2.3227  -20.4027   19.6214 H   0  0  0  0  0  0  0  0  0  0  0  0
   -4.2418  -18.8172   19.1436 H   0  0  0  0  0  0  0  0  0  0  0  0
   -3.9013  -18.9840   17.4261 H   0  0  0  0  0  0  0  0  0  0  0  0
   -5.5431  -20.6238   17.7332 H   0  0  0  0  0  0  0  0  0  0  0  0
   -5.0543  -20.9835   19.3763 H   0  0  0  0  0  0  0  0  0  0  0  0
   -4.5220  -22.6892   17.5564 H   0  0  0  0  0  0  0  0  0  0  0  0
   -3.3270  -21.1441   16.0924 H   0  0  0  0  0  0  0  0  0  0  0  0
   -2.4138  -22.5545   16.6032 H   0  0  0  0  0  0  0  0  0  0  0  0
   -1.3633  -20.1237   16.7630 H   0  0  0  0  0  0  0  0  0  0  0  0
   -0.9896  -21.3357   17.9781 H   0  0  0  0  0  0  0  0  0  0  0  0
  1  2  2  0
  2  3  1  0
  3  4  1  0
  4  5  1  0
  5  6  2  0
  6  7  1  0
  7  8  1  0
  8  9  1  0
  9 10  1  0
 10 11  1  0
 11 12  1  0
 12 13  1  0
 13 14  1  0
  8 15  2  0
  4 16  2  0
 16  1  1  0
 15  5  1  0
 14  9  1  0
  1 17  1  0
  2 18  1  0
  3 19  1  0
  9 20  1  0
 10 21  1  0
 10 22  1  0
 11 23  1  0
 11 24  1  0
 12 25  1  0
 13 26  1  0
 13 27  1  0
 14 28  1  0
 14 29  1  0
M  END
>  <Energy>  (1232) 
26.068423171305259

>  <compound_id>  (1232) 
17745

>  <target_id>  (1232) 
1

>  <reference_id>  (1232) 
9

>  <inspiration_ids>  (1232) 
[63, 9]

>  <energy_score>  (1232) 
-26.466250264841875

>  <distance_score>  (1232) 
13.859006637892787

>  <path>  (1232) 
/opt/xchem-fragalysis-2/maxwin/BulkDock/SCRATCH/511014/C17745-P9/C17745-P9.minimised.mol

>  <scratch_subdir>  (1232) 
/opt/xchem-fragalysis-2/maxwin/BulkDock/SCRATCH/511014/C17745-P9

>  <fragmenstein_runtime>  (1232) 
7.565544605255127

>  <fragmenstein_outcome>  (1232) 
too moved

>  <fragmenstein_mode>  (1232) 
expansion

>  <fragmenstein_error>  (1232) 


$$$$
C17746-P63
     RDKit          3D

 35 37  0  0  0  0  0  0  0  0999 V2000
    4.4205   -9.9695   13.6227 C   0  0  0  0  0  0  0  0  0  0  0  0
    4.1885   -8.6619   13.2243 C   0  0  0  0  0  0  0  0  0  0  0  0
    3.3578   -8.8401   11.6168 N   0  0  0  0  0  0  0  0  0  0  0  0
    2.8403  -10.5272   11.7332 C   0  0  0  0  0  0  0  0  0  0  0  0
    1.0434  -11.4593   11.9787 C   0  0  0  0  0  0  0  0  0  0  0  0
    0.0100  -11.4238   11.2180 N   0  0  0  0  0  0  0  0  0  0  0  0
   -0.3730  -12.7849   11.1151 O   0  0  0  0  0  0  0  0  0  0  0  0
    0.0337  -13.6023   12.0601 C   0  0  0  0  0  0  0  0  0  0  0  0
   -0.1725  -15.2384   11.7417 C   0  0  0  0  0  0  0  0  0  0  0  0
   -1.3545  -15.9636   10.8584 C   0  0  0  0  0  0  0  0  0  0  0  0
   -2.4848  -17.0497   11.2388 C   0  0  0  0  0  0  0  0  0  0  0  0
   -3.2123  -17.5192    9.9378 C   0  0  0  0  0  0  0  0  0  0  0  0
   -3.8205  -18.9261   10.0280 C   0  0  0  0  0  0  0  0  0  0  0  0
   -4.4150  -19.1307   11.3364 N   0  0  0  0  0  0  0  0  0  0  0  0
   -3.3614  -19.1740   12.3602 C   0  0  0  0  0  0  0  0  0  0  0  0
   -2.1057  -18.3202   12.0155 C   0  0  0  0  0  0  0  0  0  0  0  0
    0.5256  -12.7433   12.9414 N   0  0  0  0  0  0  0  0  0  0  0  0
    3.5320  -10.6581   12.9720 N   0  0  0  0  0  0  0  0  0  0  0  0
    5.0876  -10.5176   14.2566 H   0  0  0  0  0  0  0  0  0  0  0  0
    4.5489   -7.6900   13.3283 H   0  0  0  0  0  0  0  0  0  0  0  0
    2.5786   -8.2174   11.6547 H   0  0  0  0  0  0  0  0  0  0  0  0
   -0.0475  -15.7785   12.6471 H   0  0  0  0  0  0  0  0  0  0  0  0
    0.7324  -15.4826   11.1788 H   0  0  0  0  0  0  0  0  0  0  0  0
   -1.9141  -15.1631   10.3808 H   0  0  0  0  0  0  0  0  0  0  0  0
   -0.7735  -16.5072   10.1031 H   0  0  0  0  0  0  0  0  0  0  0  0
   -3.2704  -16.5392   11.8073 H   0  0  0  0  0  0  0  0  0  0  0  0
   -3.9990  -16.7900    9.7029 H   0  0  0  0  0  0  0  0  0  0  0  0
   -2.5200  -17.5077    9.0871 H   0  0  0  0  0  0  0  0  0  0  0  0
   -4.5557  -19.0117    9.2277 H   0  0  0  0  0  0  0  0  0  0  0  0
   -3.0630  -19.6928    9.8208 H   0  0  0  0  0  0  0  0  0  0  0  0
   -4.9325  -20.0293   11.3597 H   0  0  0  0  0  0  0  0  0  0  0  0
   -3.0404  -20.2092   12.5238 H   0  0  0  0  0  0  0  0  0  0  0  0
   -3.7933  -18.8195   13.3027 H   0  0  0  0  0  0  0  0  0  0  0  0
   -1.5925  -18.0872   12.9426 H   0  0  0  0  0  0  0  0  0  0  0  0
   -1.4064  -18.9167   11.4155 H   0  0  0  0  0  0  0  0  0  0  0  0
  1  2  2  0
  2  3  1  0
  3  4  1  0
  4  5  1  0
  5  6  2  0
  6  7  1  0
  7  8  1  0
  8  9  1  0
  9 10  1  0
 10 11  1  0
 11 12  1  0
 12 13  1  0
 13 14  1  0
 14 15  1  0
 15 16  1  0
  8 17  2  0
  4 18  2  0
 18  1  1  0
 17  5  1  0
 16 11  1  0
  1 19  1  0
  2 20  1  0
  3 21  1  0
  9 22  1  0
  9 23  1  0
 10 24  1  0
 10 25  1  0
 11 26  1  0
 12 27  1  0
 12 28  1  0
 13 29  1  0
 13 30  1  0
 14 31  1  0
 15 32  1  0
 15 33  1  0
 16 34  1  0
 16 35  1  0
M  END
>  <Energy>  (1233) 
341.19491087172008

>  <compound_id>  (1233) 
17746

>  <target_id>  (1233) 
1

>  <reference_id>  (1233) 
63

>  <inspiration_ids>  (1233) 
[63, 9]

>  <energy_score>  (1233) 
267.4480113813011

>  <distance_score>  (1233) 
12.1437161958705

>  <path>  (1233) 
/opt/xchem-fragalysis-2/maxwin/BulkDock/SCRATCH/511014/C17746-P63/C17746-P63.minimised.mol

>  <scratch_subdir>  (1233) 
/opt/xchem-fragalysis-2/maxwin/BulkDock/SCRATCH/511014/C17746-P63

>  <fragmenstein_runtime>  (1233) 
11.460259199142456

>  <fragmenstein_outcome>  (1233) 
too moved

>  <fragmenstein_mode>  (1233) 
expansion

>  <fragmenstein_error>  (1233) 


$$$$
C17746-P9
     RDKit          3D

 35 37  0  0  0  0  0  0  0  0999 V2000
    3.8725   -7.3955   12.5122 C   0  0  0  0  0  0  0  0  0  0  0  0
    4.4184   -8.1434   13.5509 C   0  0  0  0  0  0  0  0  0  0  0  0
    4.0910   -9.6708   13.3431 N   0  0  0  0  0  0  0  0  0  0  0  0
    3.2471   -9.7626   11.7837 C   0  0  0  0  0  0  0  0  0  0  0  0
    1.7890  -10.7577   11.2945 C   0  0  0  0  0  0  0  0  0  0  0  0
    2.3622  -11.7431   10.6171 N   0  0  0  0  0  0  0  0  0  0  0  0
    1.4783  -12.8229   10.9197 O   0  0  0  0  0  0  0  0  0  0  0  0
    0.4372  -12.6528   11.7182 C   0  0  0  0  0  0  0  0  0  0  0  0
   -0.4433  -14.2315   11.9380 C   0  0  0  0  0  0  0  0  0  0  0  0
   -1.3031  -15.5592   10.9672 C   0  0  0  0  0  0  0  0  0  0  0  0
   -2.5528  -16.7206   10.9743 C   0  0  0  0  0  0  0  0  0  0  0  0
   -4.0350  -16.2547   11.1322 C   0  0  0  0  0  0  0  0  0  0  0  0
   -4.9512  -17.2840   11.8347 C   0  0  0  0  0  0  0  0  0  0  0  0
   -4.8761  -18.6239   11.2582 N   0  0  0  0  0  0  0  0  0  0  0  0
   -3.4989  -19.1078   11.1090 C   0  0  0  0  0  0  0  0  0  0  0  0
   -2.4008  -18.1338   11.5929 C   0  0  0  0  0  0  0  0  0  0  0  0
    0.5068  -11.3546   12.0152 N   0  0  0  0  0  0  0  0  0  0  0  0
    3.3940   -8.2988   11.5349 N   0  0  0  0  0  0  0  0  0  0  0  0
    4.0075   -6.3677   12.1758 H   0  0  0  0  0  0  0  0  0  0  0  0
    5.3791   -7.9162   13.9657 H   0  0  0  0  0  0  0  0  0  0  0  0
    4.6710  -10.4256   13.6758 H   0  0  0  0  0  0  0  0  0  0  0  0
   -0.9129  -13.6780   11.1491 H   0  0  0  0  0  0  0  0  0  0  0  0
    0.5121  -14.7586   11.8756 H   0  0  0  0  0  0  0  0  0  0  0  0
   -0.4588  -16.1047   10.5304 H   0  0  0  0  0  0  0  0  0  0  0  0
   -1.8749  -14.9342   10.2960 H   0  0  0  0  0  0  0  0  0  0  0  0
   -2.5165  -16.9702    9.8971 H   0  0  0  0  0  0  0  0  0  0  0  0
   -4.4397  -16.0541   10.1305 H   0  0  0  0  0  0  0  0  0  0  0  0
   -4.1052  -15.3028   11.6636 H   0  0  0  0  0  0  0  0  0  0  0  0
   -4.7076  -17.3240   12.9036 H   0  0  0  0  0  0  0  0  0  0  0  0
   -5.9873  -16.9333   11.7688 H   0  0  0  0  0  0  0  0  0  0  0  0
   -5.3956  -19.2766   11.8459 H   0  0  0  0  0  0  0  0  0  0  0  0
   -3.3353  -19.3335   10.0490 H   0  0  0  0  0  0  0  0  0  0  0  0
   -3.3907  -20.0564   11.6485 H   0  0  0  0  0  0  0  0  0  0  0  0
   -1.4162  -18.5475   11.3489 H   0  0  0  0  0  0  0  0  0  0  0  0
   -2.5066  -18.1020   12.6772 H   0  0  0  0  0  0  0  0  0  0  0  0
  1  2  2  0
  2  3  1  0
  3  4  1  0
  4  5  1  0
  5  6  2  0
  6  7  1  0
  7  8  1  0
  8  9  1  0
  9 10  1  0
 10 11  1  0
 11 12  1  0
 12 13  1  0
 13 14  1  0
 14 15  1  0
 15 16  1  0
  8 17  2  0
  4 18  2  0
 18  1  1  0
 17  5  1  0
 16 11  1  0
  1 19  1  0
  2 20  1  0
  3 21  1  0
  9 22  1  0
  9 23  1  0
 10 24  1  0
 10 25  1  0
 11 26  1  0
 12 27  1  0
 12 28  1  0
 13 29  1  0
 13 30  1  0
 14 31  1  0
 15 32  1  0
 15 33  1  0
 16 34  1  0
 16 35  1  0
M  END
>  <Energy>  (1234) 
392.54427542967585

>  <compound_id>  (1234) 
17746

>  <target_id>  (1234) 
1

>  <reference_id>  (1234) 
9

>  <inspiration_ids>  (1234) 
[63, 9]

>  <energy_score>  (1234) 
318.7973759392539

>  <distance_score>  (1234) 
11.949119125567552

>  <path>  (1234) 
/opt/xchem-fragalysis-2/maxwin/BulkDock/SCRATCH/511014/C17746-P9/C17746-P9.minimised.mol

>  <scratch_subdir>  (1234) 
/opt/xchem-fragalysis-2/maxwin/BulkDock/SCRATCH/511014/C17746-P9

>  <fragmenstein_runtime>  (1234) 
6.611380100250244

>  <fragmenstein_outcome>  (1234) 
too moved

>  <fragmenstein_mode>  (1234) 
expansion

>  <fragmenstein_error>  (1234) 


$$$$
C17747-P63
     RDKit          3D

 45 48  0  0  0  0  0  0  0  0999 V2000
    5.2598  -11.3076   13.8251 C   0  0  0  0  0  0  0  0  0  0  0  0
    5.2590  -10.0209   14.0007 C   0  0  0  0  0  0  0  0  0  0  0  0
    4.1333   -9.5421   13.4770 N   0  0  0  0  0  0  0  0  0  0  0  0
    3.4859  -10.6513   13.1342 C   0  0  0  0  0  0  0  0  0  0  0  0
    2.0073  -11.2335   11.6798 C   0  0  0  0  0  0  0  0  0  0  0  0
    0.6361  -11.1347   11.9057 N   0  0  0  0  0  0  0  0  0  0  0  0
   -0.0428  -12.4043   12.1015 O   0  0  0  0  0  0  0  0  0  0  0  0
    0.5984  -13.4516   11.4682 C   0  0  0  0  0  0  0  0  0  0  0  0
    0.0185  -15.2840   11.3381 C   0  0  0  0  0  0  0  0  0  0  0  0
    1.1061  -16.2237   10.5184 C   0  0  0  0  0  0  0  0  0  0  0  0
    0.8205  -16.9764    9.2062 C   0  0  0  0  0  0  0  0  0  0  0  0
   -0.5031  -17.6861    9.0587 C   0  0  0  0  0  0  0  0  0  0  0  0
   -1.6893  -16.9401    9.6335 C   0  0  0  0  0  0  0  0  0  0  0  0
   -1.4167  -16.4659   11.0848 C   0  0  0  0  0  0  0  0  0  0  0  0
   -2.7747  -17.1372   11.9028 C   0  0  0  0  0  0  0  0  0  0  0  0
   -2.9570  -18.6874   11.7431 C   0  0  0  0  0  0  0  0  0  0  0  0
   -4.2222  -19.1999   12.4386 C   0  0  0  0  0  0  0  0  0  0  0  0
   -5.3805  -18.5142   11.8761 N   0  0  0  0  0  0  0  0  0  0  0  0
   -5.3270  -17.1068   12.2169 C   0  0  0  0  0  0  0  0  0  0  0  0
   -4.1187  -16.4596   11.5239 C   0  0  0  0  0  0  0  0  0  0  0  0
    1.8287  -12.7391   10.9610 N   0  0  0  0  0  0  0  0  0  0  0  0
    4.0554  -11.2953   14.2211 N   0  0  0  0  0  0  0  0  0  0  0  0
    5.8768  -12.1679   13.6859 H   0  0  0  0  0  0  0  0  0  0  0  0
    5.7896   -9.0624   14.0646 H   0  0  0  0  0  0  0  0  0  0  0  0
    3.8738   -8.5960   13.2422 H   0  0  0  0  0  0  0  0  0  0  0  0
    0.2395  -15.4746   12.3929 H   0  0  0  0  0  0  0  0  0  0  0  0
    1.4012  -17.0064   11.2309 H   0  0  0  0  0  0  0  0  0  0  0  0
    2.0007  -15.6988   10.2186 H   0  0  0  0  0  0  0  0  0  0  0  0
    1.6130  -17.7287    9.0808 H   0  0  0  0  0  0  0  0  0  0  0  0
    0.9850  -16.3097    8.3525 H   0  0  0  0  0  0  0  0  0  0  0  0
   -0.6852  -17.9144    8.0017 H   0  0  0  0  0  0  0  0  0  0  0  0
   -0.4289  -18.6589    9.5633 H   0  0  0  0  0  0  0  0  0  0  0  0
   -2.5095  -17.6492    9.5450 H   0  0  0  0  0  0  0  0  0  0  0  0
   -2.1366  -16.1489    9.0373 H   0  0  0  0  0  0  0  0  0  0  0  0
   -0.7937  -17.2931   11.4783 H   0  0  0  0  0  0  0  0  0  0  0  0
   -2.6284  -17.1441   12.9848 H   0  0  0  0  0  0  0  0  0  0  0  0
   -2.0788  -19.1980   12.1559 H   0  0  0  0  0  0  0  0  0  0  0  0
   -3.0355  -18.9776   10.6989 H   0  0  0  0  0  0  0  0  0  0  0  0
   -4.3230  -20.2685   12.2697 H   0  0  0  0  0  0  0  0  0  0  0  0
   -4.1620  -19.0571   13.5243 H   0  0  0  0  0  0  0  0  0  0  0  0
   -6.2205  -18.9865   12.1987 H   0  0  0  0  0  0  0  0  0  0  0  0
   -6.2347  -16.6063   11.8683 H   0  0  0  0  0  0  0  0  0  0  0  0
   -5.2799  -16.9572   13.3023 H   0  0  0  0  0  0  0  0  0  0  0  0
   -4.2718  -16.5156   10.4390 H   0  0  0  0  0  0  0  0  0  0  0  0
   -4.1016  -15.3927   11.7672 H   0  0  0  0  0  0  0  0  0  0  0  0
  1  2  2  0
  2  3  1  0
  3  4  1  0
  4  5  1  0
  5  6  2  0
  6  7  1  0
  7  8  1  0
  8  9  1  0
  9 10  1  0
 10 11  1  0
 11 12  1  0
 12 13  1  0
 13 14  1  0
 14 15  1  0
 15 16  1  0
 16 17  1  0
 17 18  1  0
 18 19  1  0
 19 20  1  0
  8 21  2  0
  4 22  2  0
 22  1  1  0
 21  5  1  0
 14  9  1  0
 20 15  1  0
  1 23  1  0
  2 24  1  0
  3 25  1  0
  9 26  1  0
 10 27  1  0
 10 28  1  0
 11 29  1  0
 11 30  1  0
 12 31  1  0
 12 32  1  0
 13 33  1  0
 13 34  1  0
 14 35  1  0
 15 36  1  0
 16 37  1  0
 16 38  1  0
 17 39  1  0
 17 40  1  0
 18 41  1  0
 19 42  1  0
 19 43  1  0
 20 44  1  0
 20 45  1  0
M  END
>  <Energy>  (1235) 
499.1467433659256

>  <compound_id>  (1235) 
17747

>  <target_id>  (1235) 
1

>  <reference_id>  (1235) 
63

>  <inspiration_ids>  (1235) 
[63, 9]

>  <energy_score>  (1235) 
395.82159602159714

>  <distance_score>  (1235) 
11.890149455947068

>  <path>  (1235) 
/opt/xchem-fragalysis-2/maxwin/BulkDock/SCRATCH/511014/C17747-P63/C17747-P63.minimised.mol

>  <scratch_subdir>  (1235) 
/opt/xchem-fragalysis-2/maxwin/BulkDock/SCRATCH/511014/C17747-P63

>  <fragmenstein_runtime>  (1235) 
16.36053466796875

>  <fragmenstein_outcome>  (1235) 
too moved

>  <fragmenstein_mode>  (1235) 
expansion

>  <fragmenstein_error>  (1235) 


$$$$
C17747-P9
     RDKit          3D

 45 48  0  0  0  0  0  0  0  0999 V2000
    8.2462  -10.8174   14.0975 C   0  0  0  0  0  0  0  0  0  0  0  0
    7.3340   -9.9365   14.2001 C   0  0  0  0  0  0  0  0  0  0  0  0
    5.6625  -10.2570   13.9423 N   0  0  0  0  0  0  0  0  0  0  0  0
    5.4045  -11.0042   12.7824 C   0  0  0  0  0  0  0  0  0  0  0  0
    3.8384  -10.9696   11.0949 C   0  0  0  0  0  0  0  0  0  0  0  0
    2.6014  -10.3464   11.3283 N   0  0  0  0  0  0  0  0  0  0  0  0
    1.3425  -11.1672   11.4391 O   0  0  0  0  0  0  0  0  0  0  0  0
    1.5671  -12.5255   10.9613 C   0  0  0  0  0  0  0  0  0  0  0  0
    0.5423  -14.1971   11.4025 C   0  0  0  0  0  0  0  0  0  0  0  0
    1.4075  -15.6873   10.6693 C   0  0  0  0  0  0  0  0  0  0  0  0
    1.0174  -16.8657    9.8006 C   0  0  0  0  0  0  0  0  0  0  0  0
   -0.0085  -17.6297   10.5429 C   0  0  0  0  0  0  0  0  0  0  0  0
   -1.1663  -16.7051   10.7359 C   0  0  0  0  0  0  0  0  0  0  0  0
   -1.1497  -15.0806   11.0901 C   0  0  0  0  0  0  0  0  0  0  0  0
   -2.9467  -15.0069   11.0036 C   0  0  0  0  0  0  0  0  0  0  0  0
   -3.6869  -15.4290   12.3704 C   0  0  0  0  0  0  0  0  0  0  0  0
   -4.4479  -16.7670   12.3808 C   0  0  0  0  0  0  0  0  0  0  0  0
   -5.5183  -16.8113   11.4001 N   0  0  0  0  0  0  0  0  0  0  0  0
   -5.2573  -15.9665   10.2357 C   0  0  0  0  0  0  0  0  0  0  0  0
   -3.7577  -15.8358    9.9079 C   0  0  0  0  0  0  0  0  0  0  0  0
    3.0271  -12.1849   10.3633 N   0  0  0  0  0  0  0  0  0  0  0  0
    6.7416  -11.8432   13.3383 N   0  0  0  0  0  0  0  0  0  0  0  0
    9.1695  -10.9830   14.7147 H   0  0  0  0  0  0  0  0  0  0  0  0
    7.9015   -9.6176   15.1809 H   0  0  0  0  0  0  0  0  0  0  0  0
    5.0274   -9.5099   14.1062 H   0  0  0  0  0  0  0  0  0  0  0  0
    0.6837  -14.1813   12.4762 H   0  0  0  0  0  0  0  0  0  0  0  0
    2.2988  -15.3916   10.1024 H   0  0  0  0  0  0  0  0  0  0  0  0
    1.5885  -16.2611   11.5360 H   0  0  0  0  0  0  0  0  0  0  0  0
    0.7585  -16.6190    8.7723 H   0  0  0  0  0  0  0  0  0  0  0  0
    1.8968  -17.5183    9.6917 H   0  0  0  0  0  0  0  0  0  0  0  0
   -0.3149  -18.5109    9.9648 H   0  0  0  0  0  0  0  0  0  0  0  0
    0.3767  -18.0269   11.4858 H   0  0  0  0  0  0  0  0  0  0  0  0
   -1.8797  -17.2336   11.3707 H   0  0  0  0  0  0  0  0  0  0  0  0
   -1.6106  -16.7830    9.7457 H   0  0  0  0  0  0  0  0  0  0  0  0
   -1.2293  -14.9244   12.1511 H   0  0  0  0  0  0  0  0  0  0  0  0
   -3.1947  -13.9890   10.7134 H   0  0  0  0  0  0  0  0  0  0  0  0
   -4.4200  -14.6405   12.5952 H   0  0  0  0  0  0  0  0  0  0  0  0
   -3.0076  -15.4388   13.2251 H   0  0  0  0  0  0  0  0  0  0  0  0
   -4.8839  -16.9243   13.3738 H   0  0  0  0  0  0  0  0  0  0  0  0
   -3.7583  -17.5999   12.2158 H   0  0  0  0  0  0  0  0  0  0  0  0
   -5.6474  -17.7793   11.1063 H   0  0  0  0  0  0  0  0  0  0  0  0
   -5.7802  -16.3843    9.3683 H   0  0  0  0  0  0  0  0  0  0  0  0
   -5.6864  -14.9716   10.4043 H   0  0  0  0  0  0  0  0  0  0  0  0
   -3.6578  -15.3421    8.9400 H   0  0  0  0  0  0  0  0  0  0  0  0
   -3.4272  -16.8665    9.7732 H   0  0  0  0  0  0  0  0  0  0  0  0
  1  2  2  0
  2  3  1  0
  3  4  1  0
  4  5  1  0
  5  6  2  0
  6  7  1  0
  7  8  1  0
  8  9  1  0
  9 10  1  0
 10 11  1  0
 11 12  1  0
 12 13  1  0
 13 14  1  0
 14 15  1  0
 15 16  1  0
 16 17  1  0
 17 18  1  0
 18 19  1  0
 19 20  1  0
  8 21  2  0
  4 22  2  0
 22  1  1  0
 21  5  1  0
 14  9  1  0
 20 15  1  0
  1 23  1  0
  2 24  1  0
  3 25  1  0
  9 26  1  0
 10 27  1  0
 10 28  1  0
 11 29  1  0
 11 30  1  0
 12 31  1  0
 12 32  1  0
 13 33  1  0
 13 34  1  0
 14 35  1  0
 15 36  1  0
 16 37  1  0
 16 38  1  0
 17 39  1  0
 17 40  1  0
 18 41  1  0
 19 42  1  0
 19 43  1  0
 20 44  1  0
 20 45  1  0
M  END
>  <Energy>  (1236) 
932.22281801733823

>  <compound_id>  (1236) 
17747

>  <target_id>  (1236) 
1

>  <reference_id>  (1236) 
9

>  <inspiration_ids>  (1236) 
[63, 9]

>  <energy_score>  (1236) 
828.8976706730173

>  <distance_score>  (1236) 
12.270459053977323

>  <path>  (1236) 
/opt/xchem-fragalysis-2/maxwin/BulkDock/SCRATCH/511014/C17747-P9/C17747-P9.minimised.mol

>  <scratch_subdir>  (1236) 
/opt/xchem-fragalysis-2/maxwin/BulkDock/SCRATCH/511014/C17747-P9

>  <fragmenstein_runtime>  (1236) 
17.22010850906372

>  <fragmenstein_outcome>  (1236) 
too moved

>  <fragmenstein_mode>  (1236) 
expansion

>  <fragmenstein_error>  (1236) 


$$$$
C17748-P63
     RDKit          3D

 36 38  0  0  0  0  0  0  0  0999 V2000
    5.4763   -7.5614   13.7549 C   0  0  0  0  0  0  0  0  0  0  0  0
    6.4966   -8.3201   13.7003 C   0  0  0  0  0  0  0  0  0  0  0  0
    4.8269   -8.5278   13.5052 N   0  0  0  0  0  0  0  0  0  0  0  0
    4.1545   -9.9947   13.3644 C   0  0  0  0  0  0  0  0  0  0  0  0
    2.9261  -10.6159   11.7047 C   0  0  0  0  0  0  0  0  0  0  0  0
    3.3405  -11.2946   10.6130 N   0  0  0  0  0  0  0  0  0  0  0  0
    2.5223  -12.4393   10.5244 O   0  0  0  0  0  0  0  0  0  0  0  0
    1.3080  -12.1747   11.2284 C   0  0  0  0  0  0  0  0  0  0  0  0
    0.3268  -13.3938   11.7287 C   0  0  0  0  0  0  0  0  0  0  0  0
    0.1376  -15.0299   11.4401 C   0  0  0  0  0  0  0  0  0  0  0  0
    0.7731  -15.9474   10.4770 O   0  0  0  0  0  0  0  0  0  0  0  0
    0.3216  -17.3380   10.5509 C   0  0  0  0  0  0  0  0  0  0  0  0
    1.4285  -18.3892   10.5311 C   0  0  0  0  0  0  0  0  0  0  0  0
    0.8116  -19.7894   10.7294 C   0  0  0  0  0  0  0  0  0  0  0  0
   -0.0888  -20.1512    9.6389 N   0  0  0  0  0  0  0  0  0  0  0  0
   -1.1616  -19.1890    9.4434 C   0  0  0  0  0  0  0  0  0  0  0  0
   -0.6682  -17.7224    9.4169 C   0  0  0  0  0  0  0  0  0  0  0  0
    1.4736  -11.0147   11.8281 N   0  0  0  0  0  0  0  0  0  0  0  0
    3.9810   -8.4468   13.8624 N   0  0  0  0  0  0  0  0  0  0  0  0
    5.7704   -6.8701   14.5634 H   0  0  0  0  0  0  0  0  0  0  0  0
    7.0851   -8.0256   14.5611 H   0  0  0  0  0  0  0  0  0  0  0  0
    4.1716   -7.9870   12.7805 H   0  0  0  0  0  0  0  0  0  0  0  0
    0.2209  -13.2851   12.8183 H   0  0  0  0  0  0  0  0  0  0  0  0
   -0.5674  -12.9508   11.3731 H   0  0  0  0  0  0  0  0  0  0  0  0
    0.3894  -15.4574   12.3995 H   0  0  0  0  0  0  0  0  0  0  0  0
   -0.9267  -15.1319   11.2287 H   0  0  0  0  0  0  0  0  0  0  0  0
   -0.0628  -17.4595   11.5490 H   0  0  0  0  0  0  0  0  0  0  0  0
    2.1507  -18.1832   11.3298 H   0  0  0  0  0  0  0  0  0  0  0  0
    1.9944  -18.3355    9.5926 H   0  0  0  0  0  0  0  0  0  0  0  0
    1.6229  -20.5245   10.7678 H   0  0  0  0  0  0  0  0  0  0  0  0
    0.2858  -19.8431   11.6907 H   0  0  0  0  0  0  0  0  0  0  0  0
   -0.4773  -21.0813    9.7976 H   0  0  0  0  0  0  0  0  0  0  0  0
   -1.6499  -19.4024    8.4853 H   0  0  0  0  0  0  0  0  0  0  0  0
   -1.9289  -19.3563   10.2031 H   0  0  0  0  0  0  0  0  0  0  0  0
   -1.5343  -17.0523    9.4164 H   0  0  0  0  0  0  0  0  0  0  0  0
   -0.1643  -17.5449    8.4566 H   0  0  0  0  0  0  0  0  0  0  0  0
  1  2  2  0
  2  3  1  0
  3  4  1  0
  4  5  1  0
  5  6  2  0
  6  7  1  0
  7  8  1  0
  8  9  1  0
  9 10  1  0
 10 11  1  0
 11 12  1  0
 12 13  1  0
 13 14  1  0
 14 15  1  0
 15 16  1  0
 16 17  1  0
  8 18  2  0
  4 19  2  0
 19  1  1  0
 18  5  1  0
 17 12  1  0
  1 20  1  0
  2 21  1  0
  3 22  1  0
  9 23  1  0
  9 24  1  0
 10 25  1  0
 10 26  1  0
 12 27  1  0
 13 28  1  0
 13 29  1  0
 14 30  1  0
 14 31  1  0
 15 32  1  0
 16 33  1  0
 16 34  1  0
 17 35  1  0
 17 36  1  0
M  END
>  <Energy>  (1237) 
684.06852010152738

>  <compound_id>  (1237) 
17748

>  <target_id>  (1237) 
1

>  <reference_id>  (1237) 
63

>  <inspiration_ids>  (1237) 
[63, 9]

>  <energy_score>  (1237) 
606.0883427512163

>  <distance_score>  (1237) 
13.078988024255889

>  <path>  (1237) 
/opt/xchem-fragalysis-2/maxwin/BulkDock/SCRATCH/511014/C17748-P63/C17748-P63.minimised.mol

>  <scratch_subdir>  (1237) 
/opt/xchem-fragalysis-2/maxwin/BulkDock/SCRATCH/511014/C17748-P63

>  <fragmenstein_runtime>  (1237) 
17.931182146072388

>  <fragmenstein_outcome>  (1237) 
too moved

>  <fragmenstein_mode>  (1237) 
expansion

>  <fragmenstein_error>  (1237) 


$$$$
C17748-P9
     RDKit          3D

 36 38  0  0  0  0  0  0  0  0999 V2000
    5.2958  -10.9163   13.9739 C   0  0  0  0  0  0  0  0  0  0  0  0
    5.2949   -9.6081   14.0599 C   0  0  0  0  0  0  0  0  0  0  0  0
    4.1612   -9.2730   13.5493 N   0  0  0  0  0  0  0  0  0  0  0  0
    3.4403  -10.3550   13.7678 C   0  0  0  0  0  0  0  0  0  0  0  0
    1.6814  -10.9720   12.7227 C   0  0  0  0  0  0  0  0  0  0  0  0
    1.0067  -10.8057   11.5540 N   0  0  0  0  0  0  0  0  0  0  0  0
   -0.1903  -11.7697   11.7186 O   0  0  0  0  0  0  0  0  0  0  0  0
   -0.1233  -12.4277   12.9414 C   0  0  0  0  0  0  0  0  0  0  0  0
   -1.1857  -13.7928   13.6434 C   0  0  0  0  0  0  0  0  0  0  0  0
   -3.3577  -14.1518   13.7906 C   0  0  0  0  0  0  0  0  0  0  0  0
   -3.7791  -15.1895   14.8315 O   0  0  0  0  0  0  0  0  0  0  0  0
   -5.1603  -15.5166   15.0577 C   0  0  0  0  0  0  0  0  0  0  0  0
   -6.0709  -15.8166   13.8638 C   0  0  0  0  0  0  0  0  0  0  0  0
   -5.7245  -17.1106   13.1410 C   0  0  0  0  0  0  0  0  0  0  0  0
   -5.4471  -18.2616   13.9935 N   0  0  0  0  0  0  0  0  0  0  0  0
   -4.6297  -17.9746   15.1595 C   0  0  0  0  0  0  0  0  0  0  0  0
   -5.1522  -16.7727   15.9454 C   0  0  0  0  0  0  0  0  0  0  0  0
    1.0299  -12.1490   13.4734 N   0  0  0  0  0  0  0  0  0  0  0  0
    4.1980  -10.9898   14.6939 N   0  0  0  0  0  0  0  0  0  0  0  0
    5.9674  -11.7223   13.7561 H   0  0  0  0  0  0  0  0  0  0  0  0
    5.8517   -8.6458   14.1448 H   0  0  0  0  0  0  0  0  0  0  0  0
    3.8222   -8.3931   13.1916 H   0  0  0  0  0  0  0  0  0  0  0  0
   -0.8968  -13.8512   12.4036 H   0  0  0  0  0  0  0  0  0  0  0  0
   -0.6730  -14.6189   13.0359 H   0  0  0  0  0  0  0  0  0  0  0  0
   -4.1461  -13.3822   13.9263 H   0  0  0  0  0  0  0  0  0  0  0  0
   -3.8248  -14.5063   12.8124 H   0  0  0  0  0  0  0  0  0  0  0  0
   -5.5854  -14.6799   15.6237 H   0  0  0  0  0  0  0  0  0  0  0  0
   -6.0477  -14.9875   13.1485 H   0  0  0  0  0  0  0  0  0  0  0  0
   -7.1049  -15.8900   14.2265 H   0  0  0  0  0  0  0  0  0  0  0  0
   -4.8801  -16.9016   12.4976 H   0  0  0  0  0  0  0  0  0  0  0  0
   -6.5430  -17.3642   12.4577 H   0  0  0  0  0  0  0  0  0  0  0  0
   -5.0326  -19.0170   13.4469 H   0  0  0  0  0  0  0  0  0  0  0  0
   -4.6132  -18.8515   15.8149 H   0  0  0  0  0  0  0  0  0  0  0  0
   -3.5981  -17.8097   14.8425 H   0  0  0  0  0  0  0  0  0  0  0  0
   -6.1612  -16.9756   16.3248 H   0  0  0  0  0  0  0  0  0  0  0  0
   -4.5021  -16.6108   16.8135 H   0  0  0  0  0  0  0  0  0  0  0  0
  1  2  2  0
  2  3  1  0
  3  4  1  0
  4  5  1  0
  5  6  2  0
  6  7  1  0
  7  8  1  0
  8  9  1  0
  9 10  1  0
 10 11  1  0
 11 12  1  0
 12 13  1  0
 13 14  1  0
 14 15  1  0
 15 16  1  0
 16 17  1  0
  8 18  2  0
  4 19  2  0
 19  1  1  0
 18  5  1  0
 17 12  1  0
  1 20  1  0
  2 21  1  0
  3 22  1  0
  9 23  1  0
  9 24  1  0
 10 25  1  0
 10 26  1  0
 12 27  1  0
 13 28  1  0
 13 29  1  0
 14 30  1  0
 14 31  1  0
 15 32  1  0
 16 33  1  0
 16 34  1  0
 17 35  1  0
 17 36  1  0
M  END
>  <Energy>  (1238) 
492.02837582949223

>  <compound_id>  (1238) 
17748

>  <target_id>  (1238) 
1

>  <reference_id>  (1238) 
9

>  <inspiration_ids>  (1238) 
[63, 9]

>  <energy_score>  (1238) 
414.048198479181

>  <distance_score>  (1238) 
11.629447406336032

>  <path>  (1238) 
/opt/xchem-fragalysis-2/maxwin/BulkDock/SCRATCH/511014/C17748-P9/C17748-P9.minimised.mol

>  <scratch_subdir>  (1238) 
/opt/xchem-fragalysis-2/maxwin/BulkDock/SCRATCH/511014/C17748-P9

>  <fragmenstein_runtime>  (1238) 
10.012919187545776

>  <fragmenstein_outcome>  (1238) 
too moved

>  <fragmenstein_mode>  (1238) 
expansion

>  <fragmenstein_error>  (1238) 


$$$$
C17749-P63
     RDKit          3D

 32 34  0  0  0  0  0  0  0  0999 V2000
    0.7949  -13.3226   13.9745 C   0  0  0  0  0  0  0  0  0  0  0  0
    1.7075  -12.8464   15.2545 C   0  0  0  0  0  0  0  0  0  0  0  0
    1.3618  -13.9256   16.7185 N   0  0  0  0  0  0  0  0  0  0  0  0
    0.1985  -14.5443   16.6836 C   0  0  0  0  0  0  0  0  0  0  0  0
   -0.9612  -15.1530   17.6182 C   0  0  0  0  0  0  0  0  0  0  0  0
   -0.9172  -15.4044   18.9310 N   0  0  0  0  0  0  0  0  0  0  0  0
   -2.0757  -16.2043   19.1411 O   0  0  0  0  0  0  0  0  0  0  0  0
   -2.7356  -16.3207   17.9335 C   0  0  0  0  0  0  0  0  0  0  0  0
   -4.0295  -17.1024   17.9116 C   0  0  0  0  0  0  0  0  0  0  0  0
   -4.3557  -17.9748   16.6812 C   0  0  0  0  0  0  0  0  0  0  0  0
   -4.3964  -17.2087   15.3545 C   0  0  0  0  0  0  0  0  0  0  0  0
   -4.8184  -18.0860   14.1703 C   0  0  0  0  0  0  0  0  0  0  0  0
   -4.6111  -19.5087   14.4106 N   0  0  0  0  0  0  0  0  0  0  0  0
   -3.3568  -19.7430   15.1226 C   0  0  0  0  0  0  0  0  0  0  0  0
   -3.4657  -19.2270   16.5611 C   0  0  0  0  0  0  0  0  0  0  0  0
   -2.1470  -15.6060   17.0063 N   0  0  0  0  0  0  0  0  0  0  0  0
    0.2027  -14.5650   15.2943 N   0  0  0  0  0  0  0  0  0  0  0  0
    0.4255  -13.4271   12.9666 H   0  0  0  0  0  0  0  0  0  0  0  0
    2.5987  -12.3462   15.4939 H   0  0  0  0  0  0  0  0  0  0  0  0
    2.1382  -14.0569   17.3492 H   0  0  0  0  0  0  0  0  0  0  0  0
   -4.0584  -17.7395   18.8051 H   0  0  0  0  0  0  0  0  0  0  0  0
   -4.8373  -16.3692   18.0356 H   0  0  0  0  0  0  0  0  0  0  0  0
   -5.3770  -18.3397   16.8594 H   0  0  0  0  0  0  0  0  0  0  0  0
   -3.3969  -16.8186   15.1412 H   0  0  0  0  0  0  0  0  0  0  0  0
   -5.0660  -16.3440   15.4303 H   0  0  0  0  0  0  0  0  0  0  0  0
   -5.8698  -17.8973   13.9520 H   0  0  0  0  0  0  0  0  0  0  0  0
   -4.2627  -17.7717   13.2781 H   0  0  0  0  0  0  0  0  0  0  0  0
   -4.5774  -20.0109   13.5101 H   0  0  0  0  0  0  0  0  0  0  0  0
   -3.1159  -20.8105   15.1449 H   0  0  0  0  0  0  0  0  0  0  0  0
   -2.5253  -19.2534   14.5998 H   0  0  0  0  0  0  0  0  0  0  0  0
   -2.4540  -19.0229   16.9314 H   0  0  0  0  0  0  0  0  0  0  0  0
   -3.8803  -20.0120   17.2066 H   0  0  0  0  0  0  0  0  0  0  0  0
  1  2  2  0
  2  3  1  0
  3  4  1  0
  4  5  1  0
  5  6  2  0
  6  7  1  0
  7  8  1  0
  8  9  1  0
  9 10  1  0
 10 11  1  0
 11 12  1  0
 12 13  1  0
 13 14  1  0
 14 15  1  0
  8 16  2  0
  4 17  2  0
 17  1  1  0
 16  5  1  0
 15 10  1  0
  1 18  1  0
  2 19  1  0
  3 20  1  0
  9 21  1  0
  9 22  1  0
 10 23  1  0
 11 24  1  0
 11 25  1  0
 12 26  1  0
 12 27  1  0
 13 28  1  0
 14 29  1  0
 14 30  1  0
 15 31  1  0
 15 32  1  0
M  END
>  <Energy>  (1239) 
257.77947753441794

>  <compound_id>  (1239) 
17749

>  <target_id>  (1239) 
1

>  <reference_id>  (1239) 
63

>  <inspiration_ids>  (1239) 
[63, 9]

>  <energy_score>  (1239) 
190.99490937204143

>  <distance_score>  (1239) 
13.599085802339019

>  <path>  (1239) 
/opt/xchem-fragalysis-2/maxwin/BulkDock/SCRATCH/511014/C17749-P63/C17749-P63.minimised.mol

>  <scratch_subdir>  (1239) 
/opt/xchem-fragalysis-2/maxwin/BulkDock/SCRATCH/511014/C17749-P63

>  <fragmenstein_runtime>  (1239) 
10.37035846710205

>  <fragmenstein_outcome>  (1239) 
too moved

>  <fragmenstein_mode>  (1239) 
expansion

>  <fragmenstein_error>  (1239) 


$$$$
C17749-P9
     RDKit          3D

 32 34  0  0  0  0  0  0  0  0999 V2000
    4.7367  -16.7849    9.6889 C   0  0  0  0  0  0  0  0  0  0  0  0
    4.7897  -17.1938   10.9986 C   0  0  0  0  0  0  0  0  0  0  0  0
    3.5035  -17.5755   11.2916 N   0  0  0  0  0  0  0  0  0  0  0  0
    2.7259  -17.4565   10.1620 C   0  0  0  0  0  0  0  0  0  0  0  0
    1.1617  -17.9427   10.0651 C   0  0  0  0  0  0  0  0  0  0  0  0
    0.4884  -17.9335    8.9017 N   0  0  0  0  0  0  0  0  0  0  0  0
   -0.8028  -18.3502    9.2401 O   0  0  0  0  0  0  0  0  0  0  0  0
   -0.8197  -18.5816   10.5896 C   0  0  0  0  0  0  0  0  0  0  0  0
   -2.1929  -18.6623   11.2283 C   0  0  0  0  0  0  0  0  0  0  0  0
   -2.8580  -20.0349   11.4642 C   0  0  0  0  0  0  0  0  0  0  0  0
   -4.1008  -19.8541   12.3791 C   0  0  0  0  0  0  0  0  0  0  0  0
   -5.4140  -20.3032   11.7410 C   0  0  0  0  0  0  0  0  0  0  0  0
   -5.3780  -21.6685   11.2194 N   0  0  0  0  0  0  0  0  0  0  0  0
   -4.1497  -21.9729   10.4720 C   0  0  0  0  0  0  0  0  0  0  0  0
   -3.2601  -20.7613   10.1734 C   0  0  0  0  0  0  0  0  0  0  0  0
    0.3789  -18.3992   11.1331 N   0  0  0  0  0  0  0  0  0  0  0  0
    3.4578  -16.9216    9.1911 N   0  0  0  0  0  0  0  0  0  0  0  0
    5.5357  -16.3888    9.0760 H   0  0  0  0  0  0  0  0  0  0  0  0
    5.5796  -17.2218   11.7335 H   0  0  0  0  0  0  0  0  0  0  0  0
    3.1228  -17.8245   12.1992 H   0  0  0  0  0  0  0  0  0  0  0  0
   -2.8749  -18.0286   10.6453 H   0  0  0  0  0  0  0  0  0  0  0  0
   -2.0857  -18.1645   12.2019 H   0  0  0  0  0  0  0  0  0  0  0  0
   -2.1375  -20.6677   12.0005 H   0  0  0  0  0  0  0  0  0  0  0  0
   -4.2141  -18.8061   12.6845 H   0  0  0  0  0  0  0  0  0  0  0  0
   -3.9218  -20.3985   13.3115 H   0  0  0  0  0  0  0  0  0  0  0  0
   -6.2180  -20.2394   12.4786 H   0  0  0  0  0  0  0  0  0  0  0  0
   -5.6845  -19.6060   10.9398 H   0  0  0  0  0  0  0  0  0  0  0  0
   -5.3351  -22.2798   12.0535 H   0  0  0  0  0  0  0  0  0  0  0  0
   -3.5626  -22.7098   11.0346 H   0  0  0  0  0  0  0  0  0  0  0  0
   -4.4293  -22.4593    9.5314 H   0  0  0  0  0  0  0  0  0  0  0  0
   -2.3605  -21.0938    9.6420 H   0  0  0  0  0  0  0  0  0  0  0  0
   -3.7843  -20.0754    9.4955 H   0  0  0  0  0  0  0  0  0  0  0  0
  1  2  2  0
  2  3  1  0
  3  4  1  0
  4  5  1  0
  5  6  2  0
  6  7  1  0
  7  8  1  0
  8  9  1  0
  9 10  1  0
 10 11  1  0
 11 12  1  0
 12 13  1  0
 13 14  1  0
 14 15  1  0
  8 16  2  0
  4 17  2  0
 17  1  1  0
 16  5  1  0
 15 10  1  0
  1 18  1  0
  2 19  1  0
  3 20  1  0
  9 21  1  0
  9 22  1  0
 10 23  1  0
 11 24  1  0
 11 25  1  0
 12 26  1  0
 12 27  1  0
 13 28  1  0
 14 29  1  0
 14 30  1  0
 15 31  1  0
 15 32  1  0
M  END
>  <Energy>  (1240) 
41.92474834667896

>  <compound_id>  (1240) 
17749

>  <target_id>  (1240) 
1

>  <reference_id>  (1240) 
9

>  <inspiration_ids>  (1240) 
[63, 9]

>  <energy_score>  (1240) 
-24.85981981570137

>  <distance_score>  (1240) 
13.728164687697738

>  <path>  (1240) 
/opt/xchem-fragalysis-2/maxwin/BulkDock/SCRATCH/511014/C17749-P9/C17749-P9.minimised.mol

>  <scratch_subdir>  (1240) 
/opt/xchem-fragalysis-2/maxwin/BulkDock/SCRATCH/511014/C17749-P9

>  <fragmenstein_runtime>  (1240) 
11.783457279205322

>  <fragmenstein_outcome>  (1240) 
too moved

>  <fragmenstein_mode>  (1240) 
expansion

>  <fragmenstein_error>  (1240) 


$$$$
C17750-P63
     RDKit          3D

 33 35  0  0  0  0  0  0  0  0999 V2000
   -1.3755   -9.2586   19.9683 C   0  0  0  0  0  0  0  0  0  0  0  0
   -1.6137   -8.4892   18.8609 C   0  0  0  0  0  0  0  0  0  0  0  0
   -2.5734   -9.1816   18.1639 N   0  0  0  0  0  0  0  0  0  0  0  0
   -2.8576  -10.3635   18.8199 C   0  0  0  0  0  0  0  0  0  0  0  0
   -3.9641  -11.4576   18.2641 C   0  0  0  0  0  0  0  0  0  0  0  0
   -4.7866  -11.1254   17.2511 N   0  0  0  0  0  0  0  0  0  0  0  0
   -5.5585  -12.2816   17.0314 O   0  0  0  0  0  0  0  0  0  0  0  0
   -5.1316  -13.2332   17.9186 C   0  0  0  0  0  0  0  0  0  0  0  0
   -5.9013  -14.5667   17.9589 C   0  0  0  0  0  0  0  0  0  0  0  0
   -6.3153  -15.0684   16.6619 O   0  0  0  0  0  0  0  0  0  0  0  0
   -7.7044  -15.4584   16.6064 C   0  0  0  0  0  0  0  0  0  0  0  0
   -8.0857  -16.6090   17.5441 C   0  0  0  0  0  0  0  0  0  0  0  0
   -9.5855  -16.8879   17.4358 C   0  0  0  0  0  0  0  0  0  0  0  0
  -10.0128  -17.1712   16.0738 N   0  0  0  0  0  0  0  0  0  0  0  0
   -9.5673  -16.1919   15.0925 C   0  0  0  0  0  0  0  0  0  0  0  0
   -8.0713  -15.8861   15.1826 C   0  0  0  0  0  0  0  0  0  0  0  0
   -4.1869  -12.7548   18.7281 N   0  0  0  0  0  0  0  0  0  0  0  0
   -2.1217  -10.4229   19.9198 N   0  0  0  0  0  0  0  0  0  0  0  0
   -0.6963   -9.0678   20.7890 H   0  0  0  0  0  0  0  0  0  0  0  0
   -1.2132   -7.5482   18.5155 H   0  0  0  0  0  0  0  0  0  0  0  0
   -2.9559   -8.9303   17.2624 H   0  0  0  0  0  0  0  0  0  0  0  0
   -6.7649  -14.4035   18.6137 H   0  0  0  0  0  0  0  0  0  0  0  0
   -5.2572  -15.3265   18.4131 H   0  0  0  0  0  0  0  0  0  0  0  0
   -8.2923  -14.5657   16.8608 H   0  0  0  0  0  0  0  0  0  0  0  0
   -7.4941  -17.5004   17.3061 H   0  0  0  0  0  0  0  0  0  0  0  0
   -7.8424  -16.3646   18.5836 H   0  0  0  0  0  0  0  0  0  0  0  0
  -10.1469  -16.0276   17.8208 H   0  0  0  0  0  0  0  0  0  0  0  0
   -9.8268  -17.7343   18.0851 H   0  0  0  0  0  0  0  0  0  0  0  0
  -11.0232  -17.2850   16.0248 H   0  0  0  0  0  0  0  0  0  0  0  0
   -9.8017  -16.5559   14.0865 H   0  0  0  0  0  0  0  0  0  0  0  0
  -10.1355  -15.2632   15.2281 H   0  0  0  0  0  0  0  0  0  0  0  0
   -7.4738  -16.7563   14.8851 H   0  0  0  0  0  0  0  0  0  0  0  0
   -7.8103  -15.0880   14.4772 H   0  0  0  0  0  0  0  0  0  0  0  0
  1  2  2  0
  2  3  1  0
  3  4  1  0
  4  5  1  0
  5  6  2  0
  6  7  1  0
  7  8  1  0
  8  9  1  0
  9 10  1  0
 10 11  1  0
 11 12  1  0
 12 13  1  0
 13 14  1  0
 14 15  1  0
 15 16  1  0
  8 17  2  0
  4 18  2  0
 18  1  1  0
 17  5  1  0
 16 11  1  0
  1 19  1  0
  2 20  1  0
  3 21  1  0
  9 22  1  0
  9 23  1  0
 11 24  1  0
 12 25  1  0
 12 26  1  0
 13 27  1  0
 13 28  1  0
 14 29  1  0
 15 30  1  0
 15 31  1  0
 16 32  1  0
 16 33  1  0
M  END
>  <Energy>  (1241) 
53.457672953642074

>  <compound_id>  (1241) 
17750

>  <target_id>  (1241) 
1

>  <reference_id>  (1241) 
63

>  <inspiration_ids>  (1241) 
[63, 9]

>  <energy_score>  (1241) 
-38.76295035802002

>  <distance_score>  (1241) 
13.435110424697294

>  <path>  (1241) 
/opt/xchem-fragalysis-2/maxwin/BulkDock/SCRATCH/511014/C17750-P63/C17750-P63.minimised.mol

>  <scratch_subdir>  (1241) 
/opt/xchem-fragalysis-2/maxwin/BulkDock/SCRATCH/511014/C17750-P63

>  <fragmenstein_runtime>  (1241) 
10.272705316543579

>  <fragmenstein_outcome>  (1241) 
too moved

>  <fragmenstein_mode>  (1241) 
expansion

>  <fragmenstein_error>  (1241) 


$$$$
C17750-P9
     RDKit          3D

 33 35  0  0  0  0  0  0  0  0999 V2000
    4.1729   -9.2749   13.2097 C   0  0  0  0  0  0  0  0  0  0  0  0
    4.6307  -10.3824   13.7502 C   0  0  0  0  0  0  0  0  0  0  0  0
    3.2541  -10.4582   13.7563 N   0  0  0  0  0  0  0  0  0  0  0  0
    2.3079  -10.6743   12.1791 C   0  0  0  0  0  0  0  0  0  0  0  0
    0.6893  -11.9428   12.0902 C   0  0  0  0  0  0  0  0  0  0  0  0
    0.6586  -12.8411   13.0886 N   0  0  0  0  0  0  0  0  0  0  0  0
    0.0865  -14.0269   12.6960 O   0  0  0  0  0  0  0  0  0  0  0  0
   -0.4643  -13.8795   11.5031 C   0  0  0  0  0  0  0  0  0  0  0  0
   -1.6793  -15.1240   10.9182 C   0  0  0  0  0  0  0  0  0  0  0  0
   -1.4211  -16.5729   10.8714 O   0  0  0  0  0  0  0  0  0  0  0  0
   -2.5944  -17.4510   11.1346 C   0  0  0  0  0  0  0  0  0  0  0  0
   -3.7948  -17.3409   10.1802 C   0  0  0  0  0  0  0  0  0  0  0  0
   -4.9433  -18.2606   10.6518 C   0  0  0  0  0  0  0  0  0  0  0  0
   -4.5462  -19.6625   10.7717 N   0  0  0  0  0  0  0  0  0  0  0  0
   -3.3551  -19.8274   11.6143 C   0  0  0  0  0  0  0  0  0  0  0  0
   -2.1821  -18.9348   11.1760 C   0  0  0  0  0  0  0  0  0  0  0  0
   -0.1657  -12.5550   11.1907 N   0  0  0  0  0  0  0  0  0  0  0  0
    3.2281   -9.8469   11.6968 N   0  0  0  0  0  0  0  0  0  0  0  0
    4.3334   -8.1866   13.3199 H   0  0  0  0  0  0  0  0  0  0  0  0
    5.2789  -10.8026   14.4503 H   0  0  0  0  0  0  0  0  0  0  0  0
    2.7962   -9.7774   14.3036 H   0  0  0  0  0  0  0  0  0  0  0  0
   -2.6547  -15.0071   11.3696 H   0  0  0  0  0  0  0  0  0  0  0  0
   -2.0988  -14.8589    9.9714 H   0  0  0  0  0  0  0  0  0  0  0  0
   -2.9717  -17.2169   12.1311 H   0  0  0  0  0  0  0  0  0  0  0  0
   -4.1545  -16.3073   10.1350 H   0  0  0  0  0  0  0  0  0  0  0  0
   -3.4852  -17.5998    9.1600 H   0  0  0  0  0  0  0  0  0  0  0  0
   -5.3270  -17.9024   11.6153 H   0  0  0  0  0  0  0  0  0  0  0  0
   -5.7689  -18.1902    9.9352 H   0  0  0  0  0  0  0  0  0  0  0  0
   -5.3005  -20.2032   11.1948 H   0  0  0  0  0  0  0  0  0  0  0  0
   -3.0403  -20.8759   11.5753 H   0  0  0  0  0  0  0  0  0  0  0  0
   -3.6126  -19.6092   12.6583 H   0  0  0  0  0  0  0  0  0  0  0  0
   -1.8171  -19.2420   10.1875 H   0  0  0  0  0  0  0  0  0  0  0  0
   -1.3382  -19.0725   11.8608 H   0  0  0  0  0  0  0  0  0  0  0  0
  1  2  2  0
  2  3  1  0
  3  4  1  0
  4  5  1  0
  5  6  2  0
  6  7  1  0
  7  8  1  0
  8  9  1  0
  9 10  1  0
 10 11  1  0
 11 12  1  0
 12 13  1  0
 13 14  1  0
 14 15  1  0
 15 16  1  0
  8 17  2  0
  4 18  2  0
 18  1  1  0
 17  5  1  0
 16 11  1  0
  1 19  1  0
  2 20  1  0
  3 21  1  0
  9 22  1  0
  9 23  1  0
 11 24  1  0
 12 25  1  0
 12 26  1  0
 13 27  1  0
 13 28  1  0
 14 29  1  0
 15 30  1  0
 15 31  1  0
 16 32  1  0
 16 33  1  0
M  END
>  <Energy>  (1242) 
408.69033771377411

>  <compound_id>  (1242) 
17750

>  <target_id>  (1242) 
1

>  <reference_id>  (1242) 
9

>  <inspiration_ids>  (1242) 
[63, 9]

>  <energy_score>  (1242) 
316.4697144021098

>  <distance_score>  (1242) 
12.027319491737929

>  <path>  (1242) 
/opt/xchem-fragalysis-2/maxwin/BulkDock/SCRATCH/511014/C17750-P9/C17750-P9.minimised.mol

>  <scratch_subdir>  (1242) 
/opt/xchem-fragalysis-2/maxwin/BulkDock/SCRATCH/511014/C17750-P9

>  <fragmenstein_runtime>  (1242) 
8.702430963516235

>  <fragmenstein_outcome>  (1242) 
too moved

>  <fragmenstein_mode>  (1242) 
expansion

>  <fragmenstein_error>  (1242) 


$$$$
C17751-P63
     RDKit          3D

 30 32  0  0  0  0  0  0  0  0999 V2000
    2.5244  -19.3777   12.7117 O   0  0  0  0  0  0  0  0  0  0  0  0
    2.5757  -18.5913   11.5708 N   0  0  0  0  0  0  0  0  0  0  0  0
    3.7134  -17.9722   11.1325 C   0  0  0  0  0  0  0  0  0  0  0  0
    3.3198  -17.2931   10.0032 C   0  0  0  0  0  0  0  0  0  0  0  0
    1.9774  -17.4844    9.7654 N   0  0  0  0  0  0  0  0  0  0  0  0
    1.5718  -18.3979   10.6497 C   0  0  0  0  0  0  0  0  0  0  0  0
    0.1585  -19.2292   10.5529 C   0  0  0  0  0  0  0  0  0  0  0  0
   -0.7218  -18.9684    9.5688 N   0  0  0  0  0  0  0  0  0  0  0  0
   -1.7518  -19.8952    9.7599 O   0  0  0  0  0  0  0  0  0  0  0  0
   -1.4036  -20.6789   10.8275 C   0  0  0  0  0  0  0  0  0  0  0  0
   -2.3792  -21.7972   11.1668 C   0  0  0  0  0  0  0  0  0  0  0  0
   -1.8261  -22.7663   12.2293 C   0  0  0  0  0  0  0  0  0  0  0  0
   -2.4131  -24.1878   12.1568 C   0  0  0  0  0  0  0  0  0  0  0  0
   -3.7626  -24.2171   11.5972 N   0  0  0  0  0  0  0  0  0  0  0  0
   -3.7279  -23.7792   10.2067 C   0  0  0  0  0  0  0  0  0  0  0  0
   -2.7958  -22.5940    9.9170 C   0  0  0  0  0  0  0  0  0  0  0  0
   -0.2629  -20.2809   11.3787 N   0  0  0  0  0  0  0  0  0  0  0  0
    2.2928  -18.6781   13.3624 H   0  0  0  0  0  0  0  0  0  0  0  0
    4.6537  -18.0641   11.6530 H   0  0  0  0  0  0  0  0  0  0  0  0
    3.9171  -16.6627    9.3566 H   0  0  0  0  0  0  0  0  0  0  0  0
   -3.2746  -21.3074   11.5691 H   0  0  0  0  0  0  0  0  0  0  0  0
   -2.0008  -22.3368   13.2237 H   0  0  0  0  0  0  0  0  0  0  0  0
   -0.7356  -22.8559   12.1377 H   0  0  0  0  0  0  0  0  0  0  0  0
   -2.4272  -24.6206   13.1634 H   0  0  0  0  0  0  0  0  0  0  0  0
   -1.7544  -24.8337   11.5622 H   0  0  0  0  0  0  0  0  0  0  0  0
   -4.2877  -23.5109   12.1356 H   0  0  0  0  0  0  0  0  0  0  0  0
   -4.7424  -23.5393    9.8924 H   0  0  0  0  0  0  0  0  0  0  0  0
   -3.4285  -24.6239    9.5736 H   0  0  0  0  0  0  0  0  0  0  0  0
   -3.2785  -21.9337    9.1856 H   0  0  0  0  0  0  0  0  0  0  0  0
   -1.8892  -22.9763    9.4270 H   0  0  0  0  0  0  0  0  0  0  0  0
  1  2  1  0
  2  3  1  0
  3  4  2  0
  4  5  1  0
  5  6  2  0
  6  7  1  0
  7  8  2  0
  8  9  1  0
  9 10  1  0
 10 11  1  0
 11 12  1  0
 12 13  1  0
 13 14  1  0
 14 15  1  0
 15 16  1  0
 10 17  2  0
  6  2  1  0
 17  7  1  0
 16 11  1  0
  1 18  1  0
  3 19  1  0
  4 20  1  0
 11 21  1  0
 12 22  1  0
 12 23  1  0
 13 24  1  0
 13 25  1  0
 14 26  1  0
 15 27  1  0
 15 28  1  0
 16 29  1  0
 16 30  1  0
M  END
>  <Energy>  (1243) 
31.045355960025486

>  <compound_id>  (1243) 
17751

>  <target_id>  (1243) 
1

>  <reference_id>  (1243) 
63

>  <inspiration_ids>  (1243) 
[63, 9]

>  <energy_score>  (1243) 
-27.419194962015126

>  <distance_score>  (1243) 
14.272509412970315

>  <path>  (1243) 
/opt/xchem-fragalysis-2/maxwin/BulkDock/SCRATCH/511014/C17751-P63/C17751-P63.minimised.mol

>  <scratch_subdir>  (1243) 
/opt/xchem-fragalysis-2/maxwin/BulkDock/SCRATCH/511014/C17751-P63

>  <fragmenstein_runtime>  (1243) 
11.216193437576294

>  <fragmenstein_outcome>  (1243) 
too moved

>  <fragmenstein_mode>  (1243) 
expansion

>  <fragmenstein_error>  (1243) 


$$$$
C17751-P9
     RDKit          3D

 30 32  0  0  0  0  0  0  0  0999 V2000
    2.9040  -17.3266   17.9108 O   0  0  0  0  0  0  0  0  0  0  0  0
    2.5836  -16.1658   18.6000 N   0  0  0  0  0  0  0  0  0  0  0  0
    3.4413  -15.1149   18.7408 C   0  0  0  0  0  0  0  0  0  0  0  0
    2.7669  -14.2294   19.5409 C   0  0  0  0  0  0  0  0  0  0  0  0
    1.5324  -14.7386   19.9004 N   0  0  0  0  0  0  0  0  0  0  0  0
    1.4219  -15.9243   19.3008 C   0  0  0  0  0  0  0  0  0  0  0  0
    0.1047  -16.9426   19.3871 C   0  0  0  0  0  0  0  0  0  0  0  0
   -0.9902  -16.6152   20.0953 N   0  0  0  0  0  0  0  0  0  0  0  0
   -1.9185  -17.6234   19.8040 O   0  0  0  0  0  0  0  0  0  0  0  0
   -1.3173  -18.5232   18.9644 C   0  0  0  0  0  0  0  0  0  0  0  0
   -2.1415  -19.7643   18.6228 C   0  0  0  0  0  0  0  0  0  0  0  0
   -3.6658  -19.5985   18.8863 C   0  0  0  0  0  0  0  0  0  0  0  0
   -4.5423  -20.5763   18.0899 C   0  0  0  0  0  0  0  0  0  0  0  0
   -3.8364  -21.8280   17.8849 N   0  0  0  0  0  0  0  0  0  0  0  0
   -2.6638  -21.6463   17.0199 C   0  0  0  0  0  0  0  0  0  0  0  0
   -1.9551  -20.2882   17.1971 C   0  0  0  0  0  0  0  0  0  0  0  0
   -0.0622  -18.1654   18.6904 N   0  0  0  0  0  0  0  0  0  0  0  0
    3.0356  -17.9342   18.6576 H   0  0  0  0  0  0  0  0  0  0  0  0
    4.4074  -15.0918   18.2631 H   0  0  0  0  0  0  0  0  0  0  0  0
    3.0981  -13.2615   19.8902 H   0  0  0  0  0  0  0  0  0  0  0  0
   -1.7725  -20.5407   19.3096 H   0  0  0  0  0  0  0  0  0  0  0  0
   -3.8462  -19.7337   19.9609 H   0  0  0  0  0  0  0  0  0  0  0  0
   -3.9921  -18.5790   18.6436 H   0  0  0  0  0  0  0  0  0  0  0  0
   -4.8187  -20.1188   17.1343 H   0  0  0  0  0  0  0  0  0  0  0  0
   -5.4745  -20.7559   18.6365 H   0  0  0  0  0  0  0  0  0  0  0  0
   -4.4361  -22.5420   17.4527 H   0  0  0  0  0  0  0  0  0  0  0  0
   -2.9421  -21.7611   15.9667 H   0  0  0  0  0  0  0  0  0  0  0  0
   -1.9575  -22.4529   17.2467 H   0  0  0  0  0  0  0  0  0  0  0  0
   -0.8910  -20.3990   16.9563 H   0  0  0  0  0  0  0  0  0  0  0  0
   -2.3634  -19.5624   16.4818 H   0  0  0  0  0  0  0  0  0  0  0  0
  1  2  1  0
  2  3  1  0
  3  4  2  0
  4  5  1  0
  5  6  2  0
  6  7  1  0
  7  8  2  0
  8  9  1  0
  9 10  1  0
 10 11  1  0
 11 12  1  0
 12 13  1  0
 13 14  1  0
 14 15  1  0
 15 16  1  0
 10 17  2  0
  6  2  1  0
 17  7  1  0
 16 11  1  0
  1 18  1  0
  3 19  1  0
  4 20  1  0
 11 21  1  0
 12 22  1  0
 12 23  1  0
 13 24  1  0
 13 25  1  0
 14 26  1  0
 15 27  1  0
 15 28  1  0
 16 29  1  0
 16 30  1  0
M  END
>  <Energy>  (1244) 
27.931488220502263

>  <compound_id>  (1244) 
17751

>  <target_id>  (1244) 
1

>  <reference_id>  (1244) 
9

>  <inspiration_ids>  (1244) 
[63, 9]

>  <energy_score>  (1244) 
-30.533062701536807

>  <distance_score>  (1244) 
13.880465529770499

>  <path>  (1244) 
/opt/xchem-fragalysis-2/maxwin/BulkDock/SCRATCH/511014/C17751-P9/C17751-P9.minimised.mol

>  <scratch_subdir>  (1244) 
/opt/xchem-fragalysis-2/maxwin/BulkDock/SCRATCH/511014/C17751-P9

>  <fragmenstein_runtime>  (1244) 
8.966588497161865

>  <fragmenstein_outcome>  (1244) 
too moved

>  <fragmenstein_mode>  (1244) 
expansion

>  <fragmenstein_error>  (1244) 


$$$$
C17752-P63
     RDKit          3D

 32 34  0  0  0  0  0  0  0  0999 V2000
   -7.3630  -10.2144   14.6940 C   0  0  0  0  0  0  0  0  0  0  0  0
   -6.7384   -9.8337   13.4521 N   0  0  0  0  0  0  0  0  0  0  0  0
   -6.3033   -8.5508   13.2100 C   0  0  0  0  0  0  0  0  0  0  0  0
   -6.0830   -8.5040   11.8589 C   0  0  0  0  0  0  0  0  0  0  0  0
   -6.2945   -9.7244   11.2922 N   0  0  0  0  0  0  0  0  0  0  0  0
   -6.7690  -10.5143   12.2504 C   0  0  0  0  0  0  0  0  0  0  0  0
   -7.3992  -12.0061   11.9482 C   0  0  0  0  0  0  0  0  0  0  0  0
   -7.5509  -12.4533   10.6853 N   0  0  0  0  0  0  0  0  0  0  0  0
   -8.0239  -13.7600   10.8334 O   0  0  0  0  0  0  0  0  0  0  0  0
   -8.1909  -13.9668   12.1686 C   0  0  0  0  0  0  0  0  0  0  0  0
   -8.8007  -15.2695   12.5993 C   0  0  0  0  0  0  0  0  0  0  0  0
   -7.7860  -16.4101   12.6991 C   0  0  0  0  0  0  0  0  0  0  0  0
   -7.6257  -17.2521   11.4367 C   0  0  0  0  0  0  0  0  0  0  0  0
   -8.9157  -17.6519   10.8869 N   0  0  0  0  0  0  0  0  0  0  0  0
   -9.6680  -16.4612   10.5110 C   0  0  0  0  0  0  0  0  0  0  0  0
  -10.0261  -15.6605   11.7639 C   0  0  0  0  0  0  0  0  0  0  0  0
   -7.8628  -12.9118   12.8965 N   0  0  0  0  0  0  0  0  0  0  0  0
   -7.8710  -11.1718   14.6045 H   0  0  0  0  0  0  0  0  0  0  0  0
   -8.1031   -9.4516   14.9550 H   0  0  0  0  0  0  0  0  0  0  0  0
   -6.5952  -10.2538   15.4688 H   0  0  0  0  0  0  0  0  0  0  0  0
   -6.2740   -7.7956   13.9824 H   0  0  0  0  0  0  0  0  0  0  0  0
   -5.8319   -7.6533   11.2436 H   0  0  0  0  0  0  0  0  0  0  0  0
   -9.1632  -15.0723   13.6193 H   0  0  0  0  0  0  0  0  0  0  0  0
   -8.1181  -17.0440   13.5218 H   0  0  0  0  0  0  0  0  0  0  0  0
   -6.8006  -16.0365   12.9852 H   0  0  0  0  0  0  0  0  0  0  0  0
   -7.0398  -18.1479   11.6627 H   0  0  0  0  0  0  0  0  0  0  0  0
   -7.0518  -16.6941   10.6858 H   0  0  0  0  0  0  0  0  0  0  0  0
   -8.7555  -18.2401   10.0689 H   0  0  0  0  0  0  0  0  0  0  0  0
  -10.5853  -16.7504    9.9877 H   0  0  0  0  0  0  0  0  0  0  0  0
   -9.1017  -15.8519    9.7971 H   0  0  0  0  0  0  0  0  0  0  0  0
  -10.6888  -16.2573   12.4017 H   0  0  0  0  0  0  0  0  0  0  0  0
  -10.6034  -14.7727   11.4767 H   0  0  0  0  0  0  0  0  0  0  0  0
  1  2  1  0
  2  3  1  0
  3  4  2  0
  4  5  1  0
  5  6  2  0
  6  7  1  0
  7  8  2  0
  8  9  1  0
  9 10  1  0
 10 11  1  0
 11 12  1  0
 12 13  1  0
 13 14  1  0
 14 15  1  0
 15 16  1  0
 10 17  2  0
  6  2  1  0
 17  7  1  0
 16 11  1  0
  1 18  1  0
  1 19  1  0
  1 20  1  0
  3 21  1  0
  4 22  1  0
 11 23  1  0
 12 24  1  0
 12 25  1  0
 13 26  1  0
 13 27  1  0
 14 28  1  0
 15 29  1  0
 15 30  1  0
 16 31  1  0
 16 32  1  0
M  END
>  <Energy>  (1245) 
25.783072107923616

>  <compound_id>  (1245) 
17752

>  <target_id>  (1245) 
1

>  <reference_id>  (1245) 
63

>  <inspiration_ids>  (1245) 
[63, 9]

>  <energy_score>  (1245) 
-51.50630392374583

>  <distance_score>  (1245) 
15.186940466471848

>  <path>  (1245) 
/opt/xchem-fragalysis-2/maxwin/BulkDock/SCRATCH/511014/C17752-P63/C17752-P63.minimised.mol

>  <scratch_subdir>  (1245) 
/opt/xchem-fragalysis-2/maxwin/BulkDock/SCRATCH/511014/C17752-P63

>  <fragmenstein_runtime>  (1245) 
9.204395055770874

>  <fragmenstein_outcome>  (1245) 
too moved

>  <fragmenstein_mode>  (1245) 
expansion

>  <fragmenstein_error>  (1245) 


$$$$
C17752-P9
     RDKit          3D

 32 34  0  0  0  0  0  0  0  0999 V2000
    2.8952  -12.6303    9.4447 C   0  0  0  0  0  0  0  0  0  0  0  0
    1.9586  -12.2445   10.7527 N   0  0  0  0  0  0  0  0  0  0  0  0
    2.2470  -10.9250   10.9874 C   0  0  0  0  0  0  0  0  0  0  0  0
    1.0317  -10.4907   11.3207 C   0  0  0  0  0  0  0  0  0  0  0  0
    0.1359  -11.4123   11.8482 N   0  0  0  0  0  0  0  0  0  0  0  0
    0.5614  -12.6563   11.6469 C   0  0  0  0  0  0  0  0  0  0  0  0
   -0.6720  -14.1072   12.3651 C   0  0  0  0  0  0  0  0  0  0  0  0
   -2.0213  -14.5648   11.6508 N   0  0  0  0  0  0  0  0  0  0  0  0
   -3.4772  -14.3373   12.9764 O   0  0  0  0  0  0  0  0  0  0  0  0
   -2.7379  -14.8721   14.6629 C   0  0  0  0  0  0  0  0  0  0  0  0
   -3.5087  -16.6847   14.9449 C   0  0  0  0  0  0  0  0  0  0  0  0
   -2.7604  -18.3081   14.9702 C   0  0  0  0  0  0  0  0  0  0  0  0
   -3.3199  -19.6363   14.4802 C   0  0  0  0  0  0  0  0  0  0  0  0
   -4.3677  -19.4462   13.5544 N   0  0  0  0  0  0  0  0  0  0  0  0
   -5.3379  -18.5284   14.0922 C   0  0  0  0  0  0  0  0  0  0  0  0
   -5.0156  -17.2709   14.9923 C   0  0  0  0  0  0  0  0  0  0  0  0
   -1.4065  -14.0193   13.9870 N   0  0  0  0  0  0  0  0  0  0  0  0
    3.9236  -12.4953    9.8120 H   0  0  0  0  0  0  0  0  0  0  0  0
    2.7336  -11.8614    8.6799 H   0  0  0  0  0  0  0  0  0  0  0  0
    2.7169  -13.6412    9.0824 H   0  0  0  0  0  0  0  0  0  0  0  0
    3.2042  -10.5131   10.7202 H   0  0  0  0  0  0  0  0  0  0  0  0
    0.8672   -9.4472   11.2450 H   0  0  0  0  0  0  0  0  0  0  0  0
   -3.5786  -16.4127   16.0218 H   0  0  0  0  0  0  0  0  0  0  0  0
   -2.7962  -18.5632   16.0523 H   0  0  0  0  0  0  0  0  0  0  0  0
   -1.7132  -18.3251   14.6882 H   0  0  0  0  0  0  0  0  0  0  0  0
   -3.6414  -20.2447   15.3336 H   0  0  0  0  0  0  0  0  0  0  0  0
   -2.5167  -20.2142   14.0069 H   0  0  0  0  0  0  0  0  0  0  0  0
   -4.7659  -20.3407   13.2525 H   0  0  0  0  0  0  0  0  0  0  0  0
   -5.8769  -19.1841   14.6909 H   0  0  0  0  0  0  0  0  0  0  0  0
   -5.9767  -18.1995   13.2675 H   0  0  0  0  0  0  0  0  0  0  0  0
   -5.1882  -17.5992   16.0303 H   0  0  0  0  0  0  0  0  0  0  0  0
   -5.8295  -16.6033   14.7863 H   0  0  0  0  0  0  0  0  0  0  0  0
  1  2  1  0
  2  3  1  0
  3  4  2  0
  4  5  1  0
  5  6  2  0
  6  7  1  0
  7  8  2  0
  8  9  1  0
  9 10  1  0
 10 11  1  0
 11 12  1  0
 12 13  1  0
 13 14  1  0
 14 15  1  0
 15 16  1  0
 10 17  2  0
  6  2  1  0
 17  7  1  0
 16 11  1  0
  1 18  1  0
  1 19  1  0
  1 20  1  0
  3 21  1  0
  4 22  1  0
 11 23  1  0
 12 24  1  0
 12 25  1  0
 13 26  1  0
 13 27  1  0
 14 28  1  0
 15 29  1  0
 15 30  1  0
 16 31  1  0
 16 32  1  0
M  END
>  <Energy>  (1246) 
677.86517051813735

>  <compound_id>  (1246) 
17752

>  <target_id>  (1246) 
1

>  <reference_id>  (1246) 
9

>  <inspiration_ids>  (1246) 
[63, 9]

>  <energy_score>  (1246) 
600.5757944864633

>  <distance_score>  (1246) 
13.209993229554408

>  <path>  (1246) 
/opt/xchem-fragalysis-2/maxwin/BulkDock/SCRATCH/511014/C17752-P9/C17752-P9.minimised.mol

>  <scratch_subdir>  (1246) 
/opt/xchem-fragalysis-2/maxwin/BulkDock/SCRATCH/511014/C17752-P9

>  <fragmenstein_runtime>  (1246) 
10.213971853256226

>  <fragmenstein_outcome>  (1246) 
too moved

>  <fragmenstein_mode>  (1246) 
expansion

>  <fragmenstein_error>  (1246) 


$$$$
C17753-P63
     RDKit          3D

 43 46  0  0  0  0  0  0  0  0999 V2000
    0.8503  -17.8422   11.6134 C   0  0  0  0  0  0  0  0  0  0  0  0
    0.3087  -16.8819   10.8016 C   0  0  0  0  0  0  0  0  0  0  0  0
   -1.0188  -16.8516   11.1371 N   0  0  0  0  0  0  0  0  0  0  0  0
   -1.2385  -17.7322   12.1784 C   0  0  0  0  0  0  0  0  0  0  0  0
   -2.7054  -17.9118   12.9191 C   0  0  0  0  0  0  0  0  0  0  0  0
   -2.9120  -18.4244   14.1466 N   0  0  0  0  0  0  0  0  0  0  0  0
   -4.3015  -18.2532   14.3679 O   0  0  0  0  0  0  0  0  0  0  0  0
   -4.8303  -17.8096   13.2104 C   0  0  0  0  0  0  0  0  0  0  0  0
   -6.4867  -17.8457   12.7657 C   0  0  0  0  0  0  0  0  0  0  0  0
   -7.2574  -19.5860   11.9843 C   0  0  0  0  0  0  0  0  0  0  0  0
   -8.7021  -20.1647   11.0047 C   0  0  0  0  0  0  0  0  0  0  0  0
   -9.2915  -21.6036   10.9387 C   0  0  0  0  0  0  0  0  0  0  0  0
   -9.6206  -22.0711   12.2364 N   0  0  0  0  0  0  0  0  0  0  0  0
   -8.2881  -22.3017   12.7519 C   0  0  0  0  0  0  0  0  0  0  0  0
   -7.1694  -21.1503   12.8532 C   0  0  0  0  0  0  0  0  0  0  0  0
   -7.2967  -17.0417   13.9651 C   0  0  0  0  0  0  0  0  0  0  0  0
   -6.6105  -15.8120   14.5795 C   0  0  0  0  0  0  0  0  0  0  0  0
   -6.5120  -14.7623   13.6471 O   0  0  0  0  0  0  0  0  0  0  0  0
   -5.8292  -15.1800   12.4818 C   0  0  0  0  0  0  0  0  0  0  0  0
   -6.4426  -16.4506   11.8838 C   0  0  0  0  0  0  0  0  0  0  0  0
   -3.8774  -17.4285   12.3647 N   0  0  0  0  0  0  0  0  0  0  0  0
   -0.0897  -18.3101   12.5014 N   0  0  0  0  0  0  0  0  0  0  0  0
    1.8697  -18.2050   11.6372 H   0  0  0  0  0  0  0  0  0  0  0  0
    0.7363  -16.2861   10.0140 H   0  0  0  0  0  0  0  0  0  0  0  0
   -1.7378  -16.2477   10.7691 H   0  0  0  0  0  0  0  0  0  0  0  0
   -8.1969  -19.1799   12.3180 H   0  0  0  0  0  0  0  0  0  0  0  0
   -8.6062  -19.9386    9.9616 H   0  0  0  0  0  0  0  0  0  0  0  0
   -9.5547  -19.5816   11.3772 H   0  0  0  0  0  0  0  0  0  0  0  0
   -8.6970  -22.3657   10.4831 H   0  0  0  0  0  0  0  0  0  0  0  0
  -10.1352  -21.7119   10.2622 H   0  0  0  0  0  0  0  0  0  0  0  0
  -10.1172  -21.3625   12.7727 H   0  0  0  0  0  0  0  0  0  0  0  0
   -7.8856  -23.1434   12.1772 H   0  0  0  0  0  0  0  0  0  0  0  0
   -8.5360  -22.5936   13.7814 H   0  0  0  0  0  0  0  0  0  0  0  0
   -6.1450  -21.4241   12.8605 H   0  0  0  0  0  0  0  0  0  0  0  0
   -7.1589  -21.1263   13.9075 H   0  0  0  0  0  0  0  0  0  0  0  0
   -8.2753  -16.7431   13.5631 H   0  0  0  0  0  0  0  0  0  0  0  0
   -7.5306  -17.5987   14.8414 H   0  0  0  0  0  0  0  0  0  0  0  0
   -7.2207  -15.4406   15.4106 H   0  0  0  0  0  0  0  0  0  0  0  0
   -5.6261  -16.0384   15.0007 H   0  0  0  0  0  0  0  0  0  0  0  0
   -4.7559  -15.2148   12.6641 H   0  0  0  0  0  0  0  0  0  0  0  0
   -6.0160  -14.3959   11.7480 H   0  0  0  0  0  0  0  0  0  0  0  0
   -6.0906  -16.4809   10.8647 H   0  0  0  0  0  0  0  0  0  0  0  0
   -7.4566  -16.1259   11.8744 H   0  0  0  0  0  0  0  0  0  0  0  0
  1  2  2  0
  2  3  1  0
  3  4  1  0
  4  5  1  0
  5  6  2  0
  6  7  1  0
  7  8  1  0
  8  9  1  0
  9 10  1  0
 10 11  1  0
 11 12  1  0
 12 13  1  0
 13 14  1  0
 14 15  1  0
  9 16  1  0
 16 17  1  0
 17 18  1  0
 18 19  1  0
 19 20  1  0
  8 21  2  0
  4 22  2  0
 22  1  1  0
 21  5  1  0
 20  9  1  0
 15 10  1  0
  1 23  1  0
  2 24  1  0
  3 25  1  0
 10 26  1  0
 11 27  1  0
 11 28  1  0
 12 29  1  0
 12 30  1  0
 13 31  1  0
 14 32  1  0
 14 33  1  0
 15 34  1  0
 15 35  1  0
 16 36  1  0
 16 37  1  0
 17 38  1  0
 17 39  1  0
 19 40  1  0
 19 41  1  0
 20 42  1  0
 20 43  1  0
M  END
>  <Energy>  (1247) 
317.18931114179838

>  <compound_id>  (1247) 
17753

>  <target_id>  (1247) 
1

>  <reference_id>  (1247) 
63

>  <inspiration_ids>  (1247) 
[63, 9]

>  <energy_score>  (1247) 
214.5401271224846

>  <distance_score>  (1247) 
13.705130591046496

>  <path>  (1247) 
/opt/xchem-fragalysis-2/maxwin/BulkDock/SCRATCH/511014/C17753-P63/C17753-P63.minimised.mol

>  <scratch_subdir>  (1247) 
/opt/xchem-fragalysis-2/maxwin/BulkDock/SCRATCH/511014/C17753-P63

>  <fragmenstein_runtime>  (1247) 
19.498365879058838

>  <fragmenstein_outcome>  (1247) 
too moved

>  <fragmenstein_mode>  (1247) 
expansion

>  <fragmenstein_error>  (1247) 


$$$$
C17753-P9
     RDKit          3D

 43 46  0  0  0  0  0  0  0  0999 V2000
    1.1048   -8.7583   15.3672 C   0  0  0  0  0  0  0  0  0  0  0  0
    2.4344  -10.1514   14.3248 C   0  0  0  0  0  0  0  0  0  0  0  0
    1.0673  -11.7151   13.9395 N   0  0  0  0  0  0  0  0  0  0  0  0
   -1.0038  -11.9702   13.8649 C   0  0  0  0  0  0  0  0  0  0  0  0
   -3.0796  -13.5885   13.7803 C   0  0  0  0  0  0  0  0  0  0  0  0
   -4.6009  -13.4633   13.5609 N   0  0  0  0  0  0  0  0  0  0  0  0
   -5.0616  -14.9363   12.7127 O   0  0  0  0  0  0  0  0  0  0  0  0
   -4.9885  -16.1813   13.7401 C   0  0  0  0  0  0  0  0  0  0  0  0
   -5.5913  -18.1115   13.2286 C   0  0  0  0  0  0  0  0  0  0  0  0
   -6.7645  -19.8313   12.7518 C   0  0  0  0  0  0  0  0  0  0  0  0
   -8.5314  -20.1314   12.0184 C   0  0  0  0  0  0  0  0  0  0  0  0
   -9.3715  -21.5898   12.4873 C   0  0  0  0  0  0  0  0  0  0  0  0
   -8.6305  -22.7976   12.4235 N   0  0  0  0  0  0  0  0  0  0  0  0
   -7.2984  -22.4888   12.8202 C   0  0  0  0  0  0  0  0  0  0  0  0
   -6.4232  -21.3973   12.3170 C   0  0  0  0  0  0  0  0  0  0  0  0
   -4.1325  -18.5691   13.1739 C   0  0  0  0  0  0  0  0  0  0  0  0
   -3.8870  -19.8061   12.3865 C   0  0  0  0  0  0  0  0  0  0  0  0
   -4.9581  -20.2135   11.4177 O   0  0  0  0  0  0  0  0  0  0  0  0
   -6.4917  -19.2850   10.9383 C   0  0  0  0  0  0  0  0  0  0  0  0
   -6.3568  -17.7465   11.9901 C   0  0  0  0  0  0  0  0  0  0  0  0
   -3.7778  -15.2575   14.4698 N   0  0  0  0  0  0  0  0  0  0  0  0
   -0.5370  -10.2438   14.7969 N   0  0  0  0  0  0  0  0  0  0  0  0
    0.9379   -8.2225   16.3459 H   0  0  0  0  0  0  0  0  0  0  0  0
    3.4938  -10.4602   14.5650 H   0  0  0  0  0  0  0  0  0  0  0  0
    1.4488  -12.6177   14.0030 H   0  0  0  0  0  0  0  0  0  0  0  0
   -7.0173  -20.3991   13.6188 H   0  0  0  0  0  0  0  0  0  0  0  0
   -8.6183  -20.1917   10.9329 H   0  0  0  0  0  0  0  0  0  0  0  0
   -9.1436  -19.2681   12.2845 H   0  0  0  0  0  0  0  0  0  0  0  0
  -10.1391  -21.9029   11.7945 H   0  0  0  0  0  0  0  0  0  0  0  0
   -9.9098  -21.4914   13.4397 H   0  0  0  0  0  0  0  0  0  0  0  0
   -9.0621  -23.4990   13.0270 H   0  0  0  0  0  0  0  0  0  0  0  0
   -7.4465  -22.2480   13.8681 H   0  0  0  0  0  0  0  0  0  0  0  0
   -6.7323  -23.3941   12.5684 H   0  0  0  0  0  0  0  0  0  0  0  0
   -6.0329  -21.7447   11.3662 H   0  0  0  0  0  0  0  0  0  0  0  0
   -5.5045  -21.3970   12.7826 H   0  0  0  0  0  0  0  0  0  0  0  0
   -3.5271  -17.7824   12.7013 H   0  0  0  0  0  0  0  0  0  0  0  0
   -3.7000  -18.6479   14.1763 H   0  0  0  0  0  0  0  0  0  0  0  0
   -2.9905  -19.5846   11.7955 H   0  0  0  0  0  0  0  0  0  0  0  0
   -3.6300  -20.6437   13.0349 H   0  0  0  0  0  0  0  0  0  0  0  0
   -7.0540  -20.1503   10.7808 H   0  0  0  0  0  0  0  0  0  0  0  0
   -6.5438  -18.9704    9.8754 H   0  0  0  0  0  0  0  0  0  0  0  0
   -7.2866  -17.3144   12.3816 H   0  0  0  0  0  0  0  0  0  0  0  0
   -5.8935  -16.9345   11.4189 H   0  0  0  0  0  0  0  0  0  0  0  0
  1  2  2  0
  2  3  1  0
  3  4  1  0
  4  5  1  0
  5  6  2  0
  6  7  1  0
  7  8  1  0
  8  9  1  0
  9 10  1  0
 10 11  1  0
 11 12  1  0
 12 13  1  0
 13 14  1  0
 14 15  1  0
  9 16  1  0
 16 17  1  0
 17 18  1  0
 18 19  1  0
 19 20  1  0
  8 21  2  0
  4 22  2  0
 22  1  1  0
 21  5  1  0
 20  9  1  0
 15 10  1  0
  1 23  1  0
  2 24  1  0
  3 25  1  0
 10 26  1  0
 11 27  1  0
 11 28  1  0
 12 29  1  0
 12 30  1  0
 13 31  1  0
 14 32  1  0
 14 33  1  0
 15 34  1  0
 15 35  1  0
 16 36  1  0
 16 37  1  0
 17 38  1  0
 17 39  1  0
 19 40  1  0
 19 41  1  0
 20 42  1  0
 20 43  1  0
M  END
>  <Energy>  (1248) 
2879.9706875664233

>  <compound_id>  (1248) 
17753

>  <target_id>  (1248) 
1

>  <reference_id>  (1248) 
9

>  <inspiration_ids>  (1248) 
[63, 9]

>  <energy_score>  (1248) 
2777.321503547074

>  <distance_score>  (1248) 
10.549853536068108

>  <path>  (1248) 
/opt/xchem-fragalysis-2/maxwin/BulkDock/SCRATCH/511014/C17753-P9/C17753-P9.minimised.mol

>  <scratch_subdir>  (1248) 
/opt/xchem-fragalysis-2/maxwin/BulkDock/SCRATCH/511014/C17753-P9

>  <fragmenstein_runtime>  (1248) 
18.231586694717407

>  <fragmenstein_outcome>  (1248) 
too moved

>  <fragmenstein_mode>  (1248) 
expansion

>  <fragmenstein_error>  (1248) 


$$$$
C17754-P63
     RDKit          3D

 37 40  0  0  0  0  0  0  0  0999 V2000
   -5.0199  -15.7163    9.2898 C   0  0  0  0  0  0  0  0  0  0  0  0
   -3.6592  -16.1010    9.2571 C   0  0  0  0  0  0  0  0  0  0  0  0
   -3.1727  -16.0725   10.5579 C   0  0  0  0  0  0  0  0  0  0  0  0
   -1.7751  -15.7924   10.8946 C   0  0  0  0  0  0  0  0  0  0  0  0
   -1.4220  -14.5530   11.1974 N   0  0  0  0  0  0  0  0  0  0  0  0
   -0.0839  -14.5467   11.4598 C   0  0  0  0  0  0  0  0  0  0  0  0
    0.7230  -12.9480   11.4412 C   0  0  0  0  0  0  0  0  0  0  0  0
    1.9793  -12.6907   10.8501 N   0  0  0  0  0  0  0  0  0  0  0  0
    2.3181  -11.3597   10.9726 C   0  0  0  0  0  0  0  0  0  0  0  0
    1.1513  -10.7692   11.3369 C   0  0  0  0  0  0  0  0  0  0  0  0
    0.2336  -11.7085   11.7641 N   0  0  0  0  0  0  0  0  0  0  0  0
    0.4443  -15.7730   11.2666 N   0  0  0  0  0  0  0  0  0  0  0  0
   -0.6697  -16.6050   10.9306 O   0  0  0  0  0  0  0  0  0  0  0  0
   -4.3068  -15.9916   11.4045 N   0  0  0  0  0  0  0  0  0  0  0  0
   -4.3861  -16.1376   12.8735 C   0  0  0  0  0  0  0  0  0  0  0  0
   -5.7196  -16.0519   13.5957 C   0  0  0  0  0  0  0  0  0  0  0  0
   -6.3739  -17.3846   13.6782 C   0  0  0  0  0  0  0  0  0  0  0  0
   -5.5050  -18.5017   13.3030 N   0  0  0  0  0  0  0  0  0  0  0  0
   -4.2866  -18.5078   14.0383 C   0  0  0  0  0  0  0  0  0  0  0  0
   -3.5308  -17.3251   13.4946 C   0  0  0  0  0  0  0  0  0  0  0  0
   -5.3816  -15.6044   10.6144 C   0  0  0  0  0  0  0  0  0  0  0  0
   -5.6653  -15.5360    8.4395 H   0  0  0  0  0  0  0  0  0  0  0  0
   -3.0556  -16.2113    8.3656 H   0  0  0  0  0  0  0  0  0  0  0  0
    3.2203  -10.9469   10.5575 H   0  0  0  0  0  0  0  0  0  0  0  0
    0.9251   -9.7404   11.1815 H   0  0  0  0  0  0  0  0  0  0  0  0
   -0.6999  -11.5209   12.0911 H   0  0  0  0  0  0  0  0  0  0  0  0
   -4.0516  -15.1459   13.1761 H   0  0  0  0  0  0  0  0  0  0  0  0
   -6.3917  -15.2969   13.1746 H   0  0  0  0  0  0  0  0  0  0  0  0
   -5.5200  -15.7125   14.6238 H   0  0  0  0  0  0  0  0  0  0  0  0
   -6.7640  -17.4926   14.6964 H   0  0  0  0  0  0  0  0  0  0  0  0
   -7.2169  -17.3213   12.9962 H   0  0  0  0  0  0  0  0  0  0  0  0
   -5.9091  -19.4438   13.3070 H   0  0  0  0  0  0  0  0  0  0  0  0
   -3.7189  -19.4280   13.8628 H   0  0  0  0  0  0  0  0  0  0  0  0
   -4.4587  -18.4366   15.1188 H   0  0  0  0  0  0  0  0  0  0  0  0
   -2.7845  -17.6854   12.7776 H   0  0  0  0  0  0  0  0  0  0  0  0
   -3.0012  -16.9680   14.3827 H   0  0  0  0  0  0  0  0  0  0  0  0
   -6.3366  -15.3387   11.0443 H   0  0  0  0  0  0  0  0  0  0  0  0
  1  2  1  0
  2  3  2  0
  3  4  1  0
  4  5  2  0
  5  6  1  0
  6  7  1  0
  7  8  2  0
  8  9  1  0
  9 10  2  0
 10 11  1  0
  6 12  2  0
 12 13  1  0
  3 14  1  0
 14 15  1  0
 15 16  1  0
 16 17  1  0
 17 18  1  0
 18 19  1  0
 19 20  1  0
 14 21  1  0
 21  1  2  0
 13  4  1  0
 20 15  1  0
 11  7  1  0
  1 22  1  0
  2 23  1  0
  9 24  1  0
 10 25  1  0
 11 26  1  0
 15 27  1  0
 16 28  1  0
 16 29  1  0
 17 30  1  0
 17 31  1  0
 18 32  1  0
 19 33  1  0
 19 34  1  0
 20 35  1  0
 20 36  1  0
 21 37  1  0
M  END
>  <Energy>  (1249) 
98.421717278117839

>  <compound_id>  (1249) 
17754

>  <target_id>  (1249) 
1

>  <reference_id>  (1249) 
63

>  <inspiration_ids>  (1249) 
[63, 9]

>  <energy_score>  (1249) 
7.76334726903724

>  <distance_score>  (1249) 
12.860902315097244

>  <path>  (1249) 
/opt/xchem-fragalysis-2/maxwin/BulkDock/SCRATCH/511014/C17754-P63/C17754-P63.minimised.mol

>  <scratch_subdir>  (1249) 
/opt/xchem-fragalysis-2/maxwin/BulkDock/SCRATCH/511014/C17754-P63

>  <fragmenstein_runtime>  (1249) 
13.3887939453125

>  <fragmenstein_outcome>  (1249) 
too moved

>  <fragmenstein_mode>  (1249) 
expansion

>  <fragmenstein_error>  (1249) 


$$$$
C17754-P9
     RDKit          3D

 37 40  0  0  0  0  0  0  0  0999 V2000
   -5.8109  -15.4296    8.4426 C   0  0  0  0  0  0  0  0  0  0  0  0
   -4.5218  -15.9208    8.6851 C   0  0  0  0  0  0  0  0  0  0  0  0
   -4.2834  -15.9069   10.0586 C   0  0  0  0  0  0  0  0  0  0  0  0
   -2.9474  -16.0857   10.5831 C   0  0  0  0  0  0  0  0  0  0  0  0
   -2.3228  -15.0256   10.9772 N   0  0  0  0  0  0  0  0  0  0  0  0
   -1.0018  -15.3171   11.1020 C   0  0  0  0  0  0  0  0  0  0  0  0
   -0.0855  -14.0553   11.6735 C   0  0  0  0  0  0  0  0  0  0  0  0
   -0.2786  -12.8406   11.1937 N   0  0  0  0  0  0  0  0  0  0  0  0
    0.3447  -11.8580   11.8152 C   0  0  0  0  0  0  0  0  0  0  0  0
    0.6150  -12.4318   12.9677 C   0  0  0  0  0  0  0  0  0  0  0  0
    0.1282  -13.6717   12.9284 N   0  0  0  0  0  0  0  0  0  0  0  0
   -0.7451  -16.6038   10.8139 N   0  0  0  0  0  0  0  0  0  0  0  0
   -2.0406  -17.1140   10.4134 O   0  0  0  0  0  0  0  0  0  0  0  0
   -5.5010  -15.5835   10.6814 N   0  0  0  0  0  0  0  0  0  0  0  0
   -6.0416  -15.6697   12.0538 C   0  0  0  0  0  0  0  0  0  0  0  0
   -6.2878  -17.0573   12.6479 C   0  0  0  0  0  0  0  0  0  0  0  0
   -5.2314  -17.4526   13.6611 C   0  0  0  0  0  0  0  0  0  0  0  0
   -5.3306  -16.5968   14.8355 N   0  0  0  0  0  0  0  0  0  0  0  0
   -5.7473  -15.2272   14.5363 C   0  0  0  0  0  0  0  0  0  0  0  0
   -5.4569  -14.7401   13.1065 C   0  0  0  0  0  0  0  0  0  0  0  0
   -6.3590  -15.1602    9.6686 C   0  0  0  0  0  0  0  0  0  0  0  0
   -6.2793  -15.2527    7.4826 H   0  0  0  0  0  0  0  0  0  0  0  0
   -3.7900  -16.1873    7.9316 H   0  0  0  0  0  0  0  0  0  0  0  0
    0.5880  -10.8865   11.4274 H   0  0  0  0  0  0  0  0  0  0  0  0
    1.1924  -12.1171   13.8003 H   0  0  0  0  0  0  0  0  0  0  0  0
   -0.5933  -13.7270   13.5994 H   0  0  0  0  0  0  0  0  0  0  0  0
   -7.0676  -15.2864   11.9302 H   0  0  0  0  0  0  0  0  0  0  0  0
   -7.2572  -17.0074   13.1636 H   0  0  0  0  0  0  0  0  0  0  0  0
   -6.4167  -17.8196   11.8990 H   0  0  0  0  0  0  0  0  0  0  0  0
   -5.3533  -18.4946   13.9704 H   0  0  0  0  0  0  0  0  0  0  0  0
   -4.2330  -17.3728   13.2178 H   0  0  0  0  0  0  0  0  0  0  0  0
   -4.4539  -16.6197   15.3526 H   0  0  0  0  0  0  0  0  0  0  0  0
   -5.2686  -14.5478   15.2509 H   0  0  0  0  0  0  0  0  0  0  0  0
   -6.8252  -15.1480   14.7252 H   0  0  0  0  0  0  0  0  0  0  0  0
   -5.8685  -13.7306   12.9785 H   0  0  0  0  0  0  0  0  0  0  0  0
   -4.3954  -14.6306   12.9568 H   0  0  0  0  0  0  0  0  0  0  0  0
   -7.3263  -14.7320    9.9034 H   0  0  0  0  0  0  0  0  0  0  0  0
  1  2  1  0
  2  3  2  0
  3  4  1  0
  4  5  2  0
  5  6  1  0
  6  7  1  0
  7  8  2  0
  8  9  1  0
  9 10  2  0
 10 11  1  0
  6 12  2  0
 12 13  1  0
  3 14  1  0
 14 15  1  0
 15 16  1  0
 16 17  1  0
 17 18  1  0
 18 19  1  0
 19 20  1  0
 14 21  1  0
 21  1  2  0
 13  4  1  0
 20 15  1  0
 11  7  1  0
  1 22  1  0
  2 23  1  0
  9 24  1  0
 10 25  1  0
 11 26  1  0
 15 27  1  0
 16 28  1  0
 16 29  1  0
 17 30  1  0
 17 31  1  0
 18 32  1  0
 19 33  1  0
 19 34  1  0
 20 35  1  0
 20 36  1  0
 21 37  1  0
M  END
>  <Energy>  (1250) 
129.12177033478793

>  <compound_id>  (1250) 
17754

>  <target_id>  (1250) 
1

>  <reference_id>  (1250) 
9

>  <inspiration_ids>  (1250) 
[63, 9]

>  <energy_score>  (1250) 
38.463400325707084

>  <distance_score>  (1250) 
13.672605748394188

>  <path>  (1250) 
/opt/xchem-fragalysis-2/maxwin/BulkDock/SCRATCH/511014/C17754-P9/C17754-P9.minimised.mol

>  <scratch_subdir>  (1250) 
/opt/xchem-fragalysis-2/maxwin/BulkDock/SCRATCH/511014/C17754-P9

>  <fragmenstein_runtime>  (1250) 
10.966878175735474

>  <fragmenstein_outcome>  (1250) 
too moved

>  <fragmenstein_mode>  (1250) 
expansion

>  <fragmenstein_error>  (1250) 


$$$$
C17755-P63
     RDKit          3D

 35 37  0  0  0  0  0  0  0  0999 V2000
    1.9117   -8.0031   10.0108 C   0  0  0  0  0  0  0  0  0  0  0  0
    1.1602   -9.3279    9.7928 C   0  0  0  0  0  0  0  0  0  0  0  0
    1.4049  -10.4392   10.7883 N   0  0  0  0  0  0  0  0  0  0  0  0
    2.7393  -10.9872   10.3424 C   0  0  0  0  0  0  0  0  0  0  0  0
    3.0579  -10.6890   11.5561 C   0  0  0  0  0  0  0  0  0  0  0  0
    1.7556  -11.1812   12.3256 N   0  0  0  0  0  0  0  0  0  0  0  0
    0.4950  -11.5115   11.8190 C   0  0  0  0  0  0  0  0  0  0  0  0
   -0.1974  -12.9688   13.2133 C   0  0  0  0  0  0  0  0  0  0  0  0
    0.1546  -14.0701   13.9365 N   0  0  0  0  0  0  0  0  0  0  0  0
   -1.1200  -14.1422   15.4943 O   0  0  0  0  0  0  0  0  0  0  0  0
   -2.1191  -14.7897   14.9690 C   0  0  0  0  0  0  0  0  0  0  0  0
   -3.1959  -15.1816   16.2509 C   0  0  0  0  0  0  0  0  0  0  0  0
   -3.6642  -14.5156   17.6108 C   0  0  0  0  0  0  0  0  0  0  0  0
   -3.8290  -15.5585   18.7606 C   0  0  0  0  0  0  0  0  0  0  0  0
   -3.9461  -16.9706   18.3904 N   0  0  0  0  0  0  0  0  0  0  0  0
   -4.8083  -17.1527   17.2352 C   0  0  0  0  0  0  0  0  0  0  0  0
   -4.1238  -16.6246   15.9768 C   0  0  0  0  0  0  0  0  0  0  0  0
   -1.5227  -13.7590   13.7684 N   0  0  0  0  0  0  0  0  0  0  0  0
    2.9909   -8.1580   10.1086 H   0  0  0  0  0  0  0  0  0  0  0  0
    1.5718   -7.4431   10.8817 H   0  0  0  0  0  0  0  0  0  0  0  0
    1.7584   -7.3561    9.1396 H   0  0  0  0  0  0  0  0  0  0  0  0
    0.1403   -9.2030    9.4871 H   0  0  0  0  0  0  0  0  0  0  0  0
    1.5886   -9.6667    8.8348 H   0  0  0  0  0  0  0  0  0  0  0  0
    3.2016  -10.8172    9.3777 H   0  0  0  0  0  0  0  0  0  0  0  0
    3.9611  -10.3354   12.0538 H   0  0  0  0  0  0  0  0  0  0  0  0
   -2.3177  -15.2742   16.8725 H   0  0  0  0  0  0  0  0  0  0  0  0
   -4.6259  -13.9941   17.5852 H   0  0  0  0  0  0  0  0  0  0  0  0
   -2.9412  -13.7488   17.9322 H   0  0  0  0  0  0  0  0  0  0  0  0
   -2.9606  -15.4700   19.4244 H   0  0  0  0  0  0  0  0  0  0  0  0
   -4.6977  -15.2705   19.3665 H   0  0  0  0  0  0  0  0  0  0  0  0
   -4.3223  -17.4943   19.1816 H   0  0  0  0  0  0  0  0  0  0  0  0
   -5.7742  -16.6572   17.3920 H   0  0  0  0  0  0  0  0  0  0  0  0
   -5.0201  -18.2197   17.1028 H   0  0  0  0  0  0  0  0  0  0  0  0
   -3.5747  -17.4220   15.4610 H   0  0  0  0  0  0  0  0  0  0  0  0
   -4.9300  -16.5058   15.2544 H   0  0  0  0  0  0  0  0  0  0  0  0
  1  2  1  0
  2  3  1  0
  3  4  1  0
  4  5  2  0
  5  6  1  0
  6  7  2  0
  7  8  1  0
  8  9  2  0
  9 10  1  0
 10 11  1  0
 11 12  1  0
 12 13  1  0
 13 14  1  0
 14 15  1  0
 15 16  1  0
 16 17  1  0
 11 18  2  0
  7  3  1  0
 18  8  1  0
 17 12  1  0
  1 19  1  0
  1 20  1  0
  1 21  1  0
  2 22  1  0
  2 23  1  0
  4 24  1  0
  5 25  1  0
 12 26  1  0
 13 27  1  0
 13 28  1  0
 14 29  1  0
 14 30  1  0
 15 31  1  0
 16 32  1  0
 16 33  1  0
 17 34  1  0
 17 35  1  0
M  END
>  <Energy>  (1251) 
798.41316348640498

>  <compound_id>  (1251) 
17755

>  <target_id>  (1251) 
1

>  <reference_id>  (1251) 
63

>  <inspiration_ids>  (1251) 
[63, 9]

>  <energy_score>  (1251) 
711.6418363838775

>  <distance_score>  (1251) 
13.729518739007855

>  <path>  (1251) 
/opt/xchem-fragalysis-2/maxwin/BulkDock/SCRATCH/511014/C17755-P63/C17755-P63.minimised.mol

>  <scratch_subdir>  (1251) 
/opt/xchem-fragalysis-2/maxwin/BulkDock/SCRATCH/511014/C17755-P63

>  <fragmenstein_runtime>  (1251) 
10.3330717086792

>  <fragmenstein_outcome>  (1251) 
too moved

>  <fragmenstein_mode>  (1251) 
expansion

>  <fragmenstein_error>  (1251) 


$$$$
C17755-P9
     RDKit          3D

 35 37  0  0  0  0  0  0  0  0999 V2000
    1.6950  -16.4861    6.4706 C   0  0  0  0  0  0  0  0  0  0  0  0
    0.9169  -17.4157    7.3922 C   0  0  0  0  0  0  0  0  0  0  0  0
    1.3536  -17.4666    8.7777 N   0  0  0  0  0  0  0  0  0  0  0  0
    2.4884  -16.8882    9.2970 C   0  0  0  0  0  0  0  0  0  0  0  0
    2.6488  -17.4767   10.5242 C   0  0  0  0  0  0  0  0  0  0  0  0
    1.5995  -18.3195   10.8042 N   0  0  0  0  0  0  0  0  0  0  0  0
    0.8067  -18.3117    9.7460 C   0  0  0  0  0  0  0  0  0  0  0  0
   -0.5722  -19.2446    9.5896 C   0  0  0  0  0  0  0  0  0  0  0  0
   -1.3668  -19.1501    8.5075 N   0  0  0  0  0  0  0  0  0  0  0  0
   -2.4037  -20.0574    8.7514 O   0  0  0  0  0  0  0  0  0  0  0  0
   -2.1389  -20.6781    9.9440 C   0  0  0  0  0  0  0  0  0  0  0  0
   -3.1351  -21.7547   10.3635 C   0  0  0  0  0  0  0  0  0  0  0  0
   -3.5765  -22.6341    9.1748 C   0  0  0  0  0  0  0  0  0  0  0  0
   -4.6292  -23.6885    9.5510 C   0  0  0  0  0  0  0  0  0  0  0  0
   -4.6396  -24.0231   10.9654 N   0  0  0  0  0  0  0  0  0  0  0  0
   -3.2857  -24.0548   11.5129 C   0  0  0  0  0  0  0  0  0  0  0  0
   -2.5891  -22.6805   11.4639 C   0  0  0  0  0  0  0  0  0  0  0  0
   -1.0481  -20.1881   10.5154 N   0  0  0  0  0  0  0  0  0  0  0  0
    2.7434  -16.7918    6.3917 H   0  0  0  0  0  0  0  0  0  0  0  0
    1.2639  -16.5086    5.4646 H   0  0  0  0  0  0  0  0  0  0  0  0
    1.6664  -15.4517    6.8268 H   0  0  0  0  0  0  0  0  0  0  0  0
    0.9891  -18.4388    7.0050 H   0  0  0  0  0  0  0  0  0  0  0  0
   -0.1349  -17.1209    7.3874 H   0  0  0  0  0  0  0  0  0  0  0  0
    3.1031  -16.1868    8.7525 H   0  0  0  0  0  0  0  0  0  0  0  0
    3.4565  -17.3477   11.2324 H   0  0  0  0  0  0  0  0  0  0  0  0
   -4.0196  -21.2306   10.7511 H   0  0  0  0  0  0  0  0  0  0  0  0
   -2.6916  -23.1482    8.7728 H   0  0  0  0  0  0  0  0  0  0  0  0
   -3.9581  -22.0196    8.3535 H   0  0  0  0  0  0  0  0  0  0  0  0
   -5.6216  -23.3349    9.2693 H   0  0  0  0  0  0  0  0  0  0  0  0
   -4.4499  -24.5913    8.9542 H   0  0  0  0  0  0  0  0  0  0  0  0
   -5.0973  -24.9205   11.1145 H   0  0  0  0  0  0  0  0  0  0  0  0
   -3.3038  -24.4174   12.5461 H   0  0  0  0  0  0  0  0  0  0  0  0
   -2.6867  -24.7873   10.9557 H   0  0  0  0  0  0  0  0  0  0  0  0
   -1.5155  -22.8575   11.3148 H   0  0  0  0  0  0  0  0  0  0  0  0
   -2.6672  -22.1672   12.4287 H   0  0  0  0  0  0  0  0  0  0  0  0
  1  2  1  0
  2  3  1  0
  3  4  1  0
  4  5  2  0
  5  6  1  0
  6  7  2  0
  7  8  1  0
  8  9  2  0
  9 10  1  0
 10 11  1  0
 11 12  1  0
 12 13  1  0
 13 14  1  0
 14 15  1  0
 15 16  1  0
 16 17  1  0
 11 18  2  0
  7  3  1  0
 18  8  1  0
 17 12  1  0
  1 19  1  0
  1 20  1  0
  1 21  1  0
  2 22  1  0
  2 23  1  0
  4 24  1  0
  5 25  1  0
 12 26  1  0
 13 27  1  0
 13 28  1  0
 14 29  1  0
 14 30  1  0
 15 31  1  0
 16 32  1  0
 16 33  1  0
 17 34  1  0
 17 35  1  0
M  END
>  <Energy>  (1252) 
31.973467509947117

>  <compound_id>  (1252) 
17755

>  <target_id>  (1252) 
1

>  <reference_id>  (1252) 
9

>  <inspiration_ids>  (1252) 
[63, 9]

>  <energy_score>  (1252) 
-54.7978595925743

>  <distance_score>  (1252) 
14.22204043029986

>  <path>  (1252) 
/opt/xchem-fragalysis-2/maxwin/BulkDock/SCRATCH/511014/C17755-P9/C17755-P9.minimised.mol

>  <scratch_subdir>  (1252) 
/opt/xchem-fragalysis-2/maxwin/BulkDock/SCRATCH/511014/C17755-P9

>  <fragmenstein_runtime>  (1252) 
10.902713537216187

>  <fragmenstein_outcome>  (1252) 
too moved

>  <fragmenstein_mode>  (1252) 
expansion

>  <fragmenstein_error>  (1252) 


$$$$
C17757-P63
     RDKit          3D

 47 48  0  0  0  0  0  0  0  0999 V2000
    7.0662   -6.5627   15.7410 C   0  0  0  0  0  0  0  0  0  0  0  0
    6.0634   -6.9980   14.8705 N   0  0  0  0  0  0  0  0  0  0  0  0
    4.8007   -6.4409   16.0970 C   0  0  0  0  0  0  0  0  0  0  0  0
    3.7055   -6.7781   15.2520 C   0  0  0  0  0  0  0  0  0  0  0  0
    4.0267   -7.5218   13.9337 N   0  0  0  0  0  0  0  0  0  0  0  0
    5.1067   -8.2108   13.7719 C   0  0  0  0  0  0  0  0  0  0  0  0
    4.2264  -10.0490   13.4800 C   0  0  0  0  0  0  0  0  0  0  0  0
    3.0189  -10.6421   12.0524 O   0  0  0  0  0  0  0  0  0  0  0  0
    1.3237  -11.4916   11.8862 C   0  0  0  0  0  0  0  0  0  0  0  0
    0.2439  -13.1970   12.3091 C   0  0  0  0  0  0  0  0  0  0  0  0
    0.4625  -13.6934   13.3753 O   0  0  0  0  0  0  0  0  0  0  0  0
   -0.6568  -13.7174   11.1675 N   0  0  0  0  0  0  0  0  0  0  0  0
   -1.8320  -15.2538   11.0474 C   0  0  0  0  0  0  0  0  0  0  0  0
   -0.7161  -16.4198   10.8576 C   0  0  0  0  0  0  0  0  0  0  0  0
   -2.5767  -15.4323    9.6219 C   0  0  0  0  0  0  0  0  0  0  0  0
   -3.6354  -15.8436   11.6195 C   0  0  0  0  0  0  0  0  0  0  0  0
   -5.0264  -15.1777   11.8355 C   0  0  0  0  0  0  0  0  0  0  0  0
   -6.0762  -16.1154   12.5013 C   0  0  0  0  0  0  0  0  0  0  0  0
   -5.5012  -17.2979   13.1143 N   0  0  0  0  0  0  0  0  0  0  0  0
   -4.8389  -18.1578   12.1391 C   0  0  0  0  0  0  0  0  0  0  0  0
   -4.0791  -17.3433   11.0679 C   0  0  0  0  0  0  0  0  0  0  0  0
    7.9853   -6.6788   15.2036 H   0  0  0  0  0  0  0  0  0  0  0  0
    7.0387   -5.5240   15.8914 H   0  0  0  0  0  0  0  0  0  0  0  0
    6.8433   -6.6781   16.7987 H   0  0  0  0  0  0  0  0  0  0  0  0
    5.1321   -6.2985   17.1202 H   0  0  0  0  0  0  0  0  0  0  0  0
    3.0589   -7.5121   15.7087 H   0  0  0  0  0  0  0  0  0  0  0  0
    5.0494  -10.7823   13.3818 H   0  0  0  0  0  0  0  0  0  0  0  0
    3.7005  -10.4763   14.3237 H   0  0  0  0  0  0  0  0  0  0  0  0
    0.6798  -10.7072   11.5131 H   0  0  0  0  0  0  0  0  0  0  0  0
    1.7765  -11.9555   11.0099 H   0  0  0  0  0  0  0  0  0  0  0  0
   -0.6903  -13.0432   10.4586 H   0  0  0  0  0  0  0  0  0  0  0  0
   -1.1296  -17.4262   10.7535 H   0  0  0  0  0  0  0  0  0  0  0  0
   -0.0775  -16.2791    9.9872 H   0  0  0  0  0  0  0  0  0  0  0  0
    0.0280  -16.3896   11.6590 H   0  0  0  0  0  0  0  0  0  0  0  0
   -2.8310  -14.4865    9.2188 H   0  0  0  0  0  0  0  0  0  0  0  0
   -2.1492  -16.1917    8.9588 H   0  0  0  0  0  0  0  0  0  0  0  0
   -3.5989  -15.7974    9.5650 H   0  0  0  0  0  0  0  0  0  0  0  0
   -3.6603  -16.0269   12.6833 H   0  0  0  0  0  0  0  0  0  0  0  0
   -4.9036  -14.3901   12.5828 H   0  0  0  0  0  0  0  0  0  0  0  0
   -5.4920  -14.8460   10.9068 H   0  0  0  0  0  0  0  0  0  0  0  0
   -6.8056  -16.3897   11.7523 H   0  0  0  0  0  0  0  0  0  0  0  0
   -6.6269  -15.5459   13.2595 H   0  0  0  0  0  0  0  0  0  0  0  0
   -6.2026  -17.8124   13.6270 H   0  0  0  0  0  0  0  0  0  0  0  0
   -5.5667  -18.8123   11.6511 H   0  0  0  0  0  0  0  0  0  0  0  0
   -4.1309  -18.8015   12.6716 H   0  0  0  0  0  0  0  0  0  0  0  0
   -4.7637  -17.2256   10.2161 H   0  0  0  0  0  0  0  0  0  0  0  0
   -3.2266  -17.9246   10.7063 H   0  0  0  0  0  0  0  0  0  0  0  0
  1  2  1  0
  2  3  1  0
  3  4  2  0
  4  5  1  0
  5  6  2  0
  6  7  1  0
  7  8  1  0
  8  9  1  0
  9 10  1  0
 10 11  2  0
 10 12  1  0
 12 13  1  0
 13 14  1  0
 13 15  1  0
 13 16  1  0
 16 17  1  0
 17 18  1  0
 18 19  1  0
 19 20  1  0
 20 21  1  0
  6  2  1  0
 21 16  1  0
  1 22  1  0
  1 23  1  0
  1 24  1  0
  3 25  1  0
  4 26  1  0
  7 27  1  0
  7 28  1  0
  9 29  1  0
  9 30  1  0
 12 31  1  0
 14 32  1  0
 14 33  1  0
 14 34  1  0
 15 35  1  0
 15 36  1  0
 15 37  1  0
 16 38  1  0
 17 39  1  0
 17 40  1  0
 18 41  1  0
 18 42  1  0
 19 43  1  0
 20 44  1  0
 20 45  1  0
 21 46  1  0
 21 47  1  0
M  END
>  <Energy>  (1253) 
930.8947197800386

>  <compound_id>  (1253) 
17757

>  <target_id>  (1253) 
1

>  <reference_id>  (1253) 
63

>  <inspiration_ids>  (1253) 
[63, 9]

>  <energy_score>  (1253) 
834.8626448317912

>  <distance_score>  (1253) 
11.427935191508428

>  <path>  (1253) 
/opt/xchem-fragalysis-2/maxwin/BulkDock/SCRATCH/511014/C17757-P63/C17757-P63.minimised.mol

>  <scratch_subdir>  (1253) 
/opt/xchem-fragalysis-2/maxwin/BulkDock/SCRATCH/511014/C17757-P63

>  <fragmenstein_runtime>  (1253) 
25.216192722320557

>  <fragmenstein_outcome>  (1253) 
too moved

>  <fragmenstein_mode>  (1253) 
expansion

>  <fragmenstein_error>  (1253) 


$$$$
C17757-P9
     RDKit          3D

 47 48  0  0  0  0  0  0  0  0999 V2000
    8.1261  -10.1827   14.8154 C   0  0  0  0  0  0  0  0  0  0  0  0
    6.3813  -10.0574   13.9975 N   0  0  0  0  0  0  0  0  0  0  0  0
    6.0492   -8.2325   14.1101 C   0  0  0  0  0  0  0  0  0  0  0  0
    4.7208   -8.1958   13.7397 C   0  0  0  0  0  0  0  0  0  0  0  0
    4.2058   -9.4970   13.6484 N   0  0  0  0  0  0  0  0  0  0  0  0
    4.8226  -10.4940   14.2032 C   0  0  0  0  0  0  0  0  0  0  0  0
    3.6563  -11.5376   15.2391 C   0  0  0  0  0  0  0  0  0  0  0  0
    1.9691  -12.5478   14.5495 O   0  0  0  0  0  0  0  0  0  0  0  0
    0.8161  -13.1007   13.0332 C   0  0  0  0  0  0  0  0  0  0  0  0
    0.2295  -14.6454   11.8178 C   0  0  0  0  0  0  0  0  0  0  0  0
    1.1494  -15.3281   11.5707 O   0  0  0  0  0  0  0  0  0  0  0  0
   -1.3609  -15.0563   11.2326 N   0  0  0  0  0  0  0  0  0  0  0  0
   -1.9859  -16.5173   10.3234 C   0  0  0  0  0  0  0  0  0  0  0  0
   -0.7922  -17.4372    9.9845 C   0  0  0  0  0  0  0  0  0  0  0  0
   -2.8855  -15.9974    9.1595 C   0  0  0  0  0  0  0  0  0  0  0  0
   -3.2555  -17.7479   10.7426 C   0  0  0  0  0  0  0  0  0  0  0  0
   -4.5679  -17.1940   11.3703 C   0  0  0  0  0  0  0  0  0  0  0  0
   -5.2921  -18.2281   12.2311 C   0  0  0  0  0  0  0  0  0  0  0  0
   -5.3989  -19.4980   11.5236 N   0  0  0  0  0  0  0  0  0  0  0  0
   -4.0874  -20.1185   11.3193 C   0  0  0  0  0  0  0  0  0  0  0  0
   -2.8892  -19.1424   11.3683 C   0  0  0  0  0  0  0  0  0  0  0  0
    8.7800  -10.8376   14.2127 H   0  0  0  0  0  0  0  0  0  0  0  0
    8.5749   -9.3801   15.3749 H   0  0  0  0  0  0  0  0  0  0  0  0
    8.0969  -10.4273   15.9225 H   0  0  0  0  0  0  0  0  0  0  0  0
    6.9154   -7.6624   14.3017 H   0  0  0  0  0  0  0  0  0  0  0  0
    4.1705   -7.3751   13.3814 H   0  0  0  0  0  0  0  0  0  0  0  0
    4.4917  -12.1461   15.0063 H   0  0  0  0  0  0  0  0  0  0  0  0
    3.5125  -11.2515   16.2934 H   0  0  0  0  0  0  0  0  0  0  0  0
   -0.1956  -13.0010   13.4031 H   0  0  0  0  0  0  0  0  0  0  0  0
    0.7191  -12.1813   12.4250 H   0  0  0  0  0  0  0  0  0  0  0  0
   -2.0025  -14.4216   11.6045 H   0  0  0  0  0  0  0  0  0  0  0  0
   -0.4828  -18.0110   10.8629 H   0  0  0  0  0  0  0  0  0  0  0  0
   -1.0455  -18.1401    9.1841 H   0  0  0  0  0  0  0  0  0  0  0  0
    0.1135  -16.9065    9.6832 H   0  0  0  0  0  0  0  0  0  0  0  0
   -2.5104  -16.3234    8.1838 H   0  0  0  0  0  0  0  0  0  0  0  0
   -3.0427  -14.9383    9.2786 H   0  0  0  0  0  0  0  0  0  0  0  0
   -3.9265  -16.3259    9.1149 H   0  0  0  0  0  0  0  0  0  0  0  0
   -3.5477  -18.1176    9.7422 H   0  0  0  0  0  0  0  0  0  0  0  0
   -5.2523  -16.8734   10.5766 H   0  0  0  0  0  0  0  0  0  0  0  0
   -4.3724  -16.2996   11.9689 H   0  0  0  0  0  0  0  0  0  0  0  0
   -6.2841  -17.8345   12.4601 H   0  0  0  0  0  0  0  0  0  0  0  0
   -4.7758  -18.3471   13.1905 H   0  0  0  0  0  0  0  0  0  0  0  0
   -5.9892  -20.1488   12.0415 H   0  0  0  0  0  0  0  0  0  0  0  0
   -4.1042  -20.6210   10.3457 H   0  0  0  0  0  0  0  0  0  0  0  0
   -3.9184  -20.8961   12.0685 H   0  0  0  0  0  0  0  0  0  0  0  0
   -2.0606  -19.6060   10.8235 H   0  0  0  0  0  0  0  0  0  0  0  0
   -2.5707  -19.0574   12.4126 H   0  0  0  0  0  0  0  0  0  0  0  0
  1  2  1  0
  2  3  1  0
  3  4  2  0
  4  5  1  0
  5  6  2  0
  6  7  1  0
  7  8  1  0
  8  9  1  0
  9 10  1  0
 10 11  2  0
 10 12  1  0
 12 13  1  0
 13 14  1  0
 13 15  1  0
 13 16  1  0
 16 17  1  0
 17 18  1  0
 18 19  1  0
 19 20  1  0
 20 21  1  0
  6  2  1  0
 21 16  1  0
  1 22  1  0
  1 23  1  0
  1 24  1  0
  3 25  1  0
  4 26  1  0
  7 27  1  0
  7 28  1  0
  9 29  1  0
  9 30  1  0
 12 31  1  0
 14 32  1  0
 14 33  1  0
 14 34  1  0
 15 35  1  0
 15 36  1  0
 15 37  1  0
 16 38  1  0
 17 39  1  0
 17 40  1  0
 18 41  1  0
 18 42  1  0
 19 43  1  0
 20 44  1  0
 20 45  1  0
 21 46  1  0
 21 47  1  0
M  END
>  <Energy>  (1254) 
848.64083332635346

>  <compound_id>  (1254) 
17757

>  <target_id>  (1254) 
1

>  <reference_id>  (1254) 
9

>  <inspiration_ids>  (1254) 
[63, 9]

>  <energy_score>  (1254) 
752.6087583780945

>  <distance_score>  (1254) 
11.090840355157471

>  <path>  (1254) 
/opt/xchem-fragalysis-2/maxwin/BulkDock/SCRATCH/511014/C17757-P9/C17757-P9.minimised.mol

>  <scratch_subdir>  (1254) 
/opt/xchem-fragalysis-2/maxwin/BulkDock/SCRATCH/511014/C17757-P9

>  <fragmenstein_runtime>  (1254) 
18.45571517944336

>  <fragmenstein_outcome>  (1254) 
too moved

>  <fragmenstein_mode>  (1254) 
expansion

>  <fragmenstein_error>  (1254) 


$$$$
C17758-P63
     RDKit          3D

 46 47  0  0  0  0  0  0  0  0999 V2000
   12.4231   -6.6165   16.0693 C   0  0  0  0  0  0  0  0  0  0  0  0
   10.9730   -6.5933   15.5850 C   0  0  0  0  0  0  0  0  0  0  0  0
    9.5866   -7.8348   15.2463 O   0  0  0  0  0  0  0  0  0  0  0  0
    8.2162   -7.2219   14.6590 C   0  0  0  0  0  0  0  0  0  0  0  0
    8.3924   -6.0386   14.4360 O   0  0  0  0  0  0  0  0  0  0  0  0
    6.4633   -8.0342   14.1156 C   0  0  0  0  0  0  0  0  0  0  0  0
    5.3485   -6.9310   13.9382 N   0  0  0  0  0  0  0  0  0  0  0  0
    4.8094   -6.6487   12.7635 C   0  0  0  0  0  0  0  0  0  0  0  0
    4.0658   -7.6710   12.8403 N   0  0  0  0  0  0  0  0  0  0  0  0
    4.7667   -8.6116   13.6028 C   0  0  0  0  0  0  0  0  0  0  0  0
    3.8651  -10.3909   13.2508 C   0  0  0  0  0  0  0  0  0  0  0  0
    2.3962  -11.0532   11.8774 N   0  0  0  0  0  0  0  0  0  0  0  0
    0.4128  -12.2545   12.0636 S   0  0  0  0  0  0  0  0  0  0  0  0
   -0.4893  -11.2599   11.6601 O   0  0  0  0  0  0  0  0  0  0  0  0
    0.3811  -12.6527   13.4379 O   0  0  0  0  0  0  0  0  0  0  0  0
   -0.3161  -14.1977   11.3921 N   0  0  0  0  0  0  0  0  0  0  0  0
    0.4728  -15.2565   11.9840 C   0  0  0  0  0  0  0  0  0  0  0  0
   -1.8120  -15.2407   10.8430 C   0  0  0  0  0  0  0  0  0  0  0  0
   -1.3836  -16.7503   10.5339 C   0  0  0  0  0  0  0  0  0  0  0  0
   -2.5020  -17.5958    9.8934 C   0  0  0  0  0  0  0  0  0  0  0  0
   -3.5434  -17.9022   10.8484 N   0  0  0  0  0  0  0  0  0  0  0  0
   -3.9271  -16.7903   11.6930 C   0  0  0  0  0  0  0  0  0  0  0  0
   -3.4094  -15.3931   11.2353 C   0  0  0  0  0  0  0  0  0  0  0  0
   12.9127   -5.6269   15.9531 H   0  0  0  0  0  0  0  0  0  0  0  0
   12.8867   -7.4320   15.5857 H   0  0  0  0  0  0  0  0  0  0  0  0
   12.7164   -6.5893   17.0717 H   0  0  0  0  0  0  0  0  0  0  0  0
   10.8802   -6.1808   16.5587 H   0  0  0  0  0  0  0  0  0  0  0  0
   10.7201   -5.7448   14.9167 H   0  0  0  0  0  0  0  0  0  0  0  0
    5.1538   -6.3555   14.7579 H   0  0  0  0  0  0  0  0  0  0  0  0
    4.6224   -5.7320   12.2167 H   0  0  0  0  0  0  0  0  0  0  0  0
    3.5430  -10.6698   14.2456 H   0  0  0  0  0  0  0  0  0  0  0  0
    4.7962  -10.9919   13.1424 H   0  0  0  0  0  0  0  0  0  0  0  0
    1.9128  -10.1456   11.7755 H   0  0  0  0  0  0  0  0  0  0  0  0
    1.0792  -14.7743   12.7070 H   0  0  0  0  0  0  0  0  0  0  0  0
    1.0197  -15.7786   11.1983 H   0  0  0  0  0  0  0  0  0  0  0  0
   -0.0860  -16.0130   12.5030 H   0  0  0  0  0  0  0  0  0  0  0  0
   -2.0045  -14.7948    9.8994 H   0  0  0  0  0  0  0  0  0  0  0  0
   -0.5016  -16.7824    9.8884 H   0  0  0  0  0  0  0  0  0  0  0  0
   -1.1000  -17.2731   11.4538 H   0  0  0  0  0  0  0  0  0  0  0  0
   -2.0721  -18.5382    9.5365 H   0  0  0  0  0  0  0  0  0  0  0  0
   -2.9123  -17.0807    9.0170 H   0  0  0  0  0  0  0  0  0  0  0  0
   -4.3288  -18.4123   10.4536 H   0  0  0  0  0  0  0  0  0  0  0  0
   -5.0228  -16.7446   11.7297 H   0  0  0  0  0  0  0  0  0  0  0  0
   -3.6136  -17.0198   12.7151 H   0  0  0  0  0  0  0  0  0  0  0  0
   -3.8307  -14.6423   11.9097 H   0  0  0  0  0  0  0  0  0  0  0  0
   -3.9582  -15.2132   10.2936 H   0  0  0  0  0  0  0  0  0  0  0  0
  1  2  1  0
  2  3  1  0
  3  4  1  0
  4  5  2  0
  4  6  1  0
  6  7  1  0
  7  8  1  0
  8  9  2  0
  9 10  1  0
 10 11  1  0
 11 12  1  0
 12 13  1  0
 13 14  2  0
 13 15  2  0
 13 16  1  0
 16 17  1  0
 16 18  1  0
 18 19  1  0
 19 20  1  0
 20 21  1  0
 21 22  1  0
 22 23  1  0
 10  6  2  0
 23 18  1  0
  1 24  1  0
  1 25  1  0
  1 26  1  0
  2 27  1  0
  2 28  1  0
  7 29  1  0
  8 30  1  0
 11 31  1  0
 11 32  1  0
 12 33  1  0
 17 34  1  0
 17 35  1  0
 17 36  1  0
 18 37  1  0
 19 38  1  0
 19 39  1  0
 20 40  1  0
 20 41  1  0
 21 42  1  0
 22 43  1  0
 22 44  1  0
 23 45  1  0
 23 46  1  0
M  END
>  <Energy>  (1255) 
784.21123920850368

>  <compound_id>  (1255) 
17758

>  <target_id>  (1255) 
1

>  <reference_id>  (1255) 
63

>  <inspiration_ids>  (1255) 
[63, 9]

>  <energy_score>  (1255) 
910.3513223831708

>  <distance_score>  (1255) 
12.112800578916794

>  <path>  (1255) 
/opt/xchem-fragalysis-2/maxwin/BulkDock/SCRATCH/511014/C17758-P63/C17758-P63.minimised.mol

>  <scratch_subdir>  (1255) 
/opt/xchem-fragalysis-2/maxwin/BulkDock/SCRATCH/511014/C17758-P63

>  <fragmenstein_runtime>  (1255) 
14.274754047393799

>  <fragmenstein_outcome>  (1255) 
too moved

>  <fragmenstein_mode>  (1255) 
expansion

>  <fragmenstein_error>  (1255) 


$$$$
C17758-P9
     RDKit          3D

 46 47  0  0  0  0  0  0  0  0999 V2000
    8.2650   -4.1856   15.5432 C   0  0  0  0  0  0  0  0  0  0  0  0
    6.8626   -5.6180   15.8531 C   0  0  0  0  0  0  0  0  0  0  0  0
    6.4996   -7.0534   14.8326 O   0  0  0  0  0  0  0  0  0  0  0  0
    5.2053   -7.4008   13.7854 C   0  0  0  0  0  0  0  0  0  0  0  0
    4.6386   -6.5139   13.1586 O   0  0  0  0  0  0  0  0  0  0  0  0
    4.6419   -9.0189   13.7398 C   0  0  0  0  0  0  0  0  0  0  0  0
    5.6038  -10.1212   13.9276 N   0  0  0  0  0  0  0  0  0  0  0  0
    4.9842  -11.1888   14.2146 C   0  0  0  0  0  0  0  0  0  0  0  0
    3.8542  -10.6425   14.4577 N   0  0  0  0  0  0  0  0  0  0  0  0
    3.7513  -10.0721   13.2245 C   0  0  0  0  0  0  0  0  0  0  0  0
    2.4279  -10.6436   11.7749 C   0  0  0  0  0  0  0  0  0  0  0  0
    0.8309  -11.8212   11.6392 N   0  0  0  0  0  0  0  0  0  0  0  0
    0.0751  -13.7688   12.1771 S   0  0  0  0  0  0  0  0  0  0  0  0
    1.3760  -14.2334   12.1393 O   0  0  0  0  0  0  0  0  0  0  0  0
   -0.9391  -13.5231   11.2305 O   0  0  0  0  0  0  0  0  0  0  0  0
   -0.3901  -15.5965   11.1876 N   0  0  0  0  0  0  0  0  0  0  0  0
    0.6856  -16.5383   10.8089 C   0  0  0  0  0  0  0  0  0  0  0  0
   -1.8953  -16.4447   11.1498 C   0  0  0  0  0  0  0  0  0  0  0  0
   -2.4159  -16.9766    9.7865 C   0  0  0  0  0  0  0  0  0  0  0  0
   -3.8237  -17.6318    9.9118 C   0  0  0  0  0  0  0  0  0  0  0  0
   -4.0435  -18.4885   11.0751 N   0  0  0  0  0  0  0  0  0  0  0  0
   -2.7616  -18.9367   11.5965 C   0  0  0  0  0  0  0  0  0  0  0  0
   -1.8982  -17.7486   12.0689 C   0  0  0  0  0  0  0  0  0  0  0  0
    7.8001   -3.1976   15.2640 H   0  0  0  0  0  0  0  0  0  0  0  0
    9.3167   -3.8379   15.5694 H   0  0  0  0  0  0  0  0  0  0  0  0
    8.7017   -4.6941   14.6740 H   0  0  0  0  0  0  0  0  0  0  0  0
    6.7594   -5.9266   16.9065 H   0  0  0  0  0  0  0  0  0  0  0  0
    5.8489   -5.1706   15.7238 H   0  0  0  0  0  0  0  0  0  0  0  0
    6.5988  -10.0645   13.9492 H   0  0  0  0  0  0  0  0  0  0  0  0
    5.3754  -12.1736   14.1814 H   0  0  0  0  0  0  0  0  0  0  0  0
    3.0595  -11.0262   10.9380 H   0  0  0  0  0  0  0  0  0  0  0  0
    1.9352   -9.8211   11.2585 H   0  0  0  0  0  0  0  0  0  0  0  0
    0.0354  -11.2368   11.8952 H   0  0  0  0  0  0  0  0  0  0  0  0
    0.3889  -17.0702    9.8991 H   0  0  0  0  0  0  0  0  0  0  0  0
    1.6141  -16.0557   10.5276 H   0  0  0  0  0  0  0  0  0  0  0  0
    0.8532  -17.3088   11.5501 H   0  0  0  0  0  0  0  0  0  0  0  0
   -2.6751  -15.7066   11.3328 H   0  0  0  0  0  0  0  0  0  0  0  0
   -2.5656  -16.1643    9.0787 H   0  0  0  0  0  0  0  0  0  0  0  0
   -1.7067  -17.6843    9.3432 H   0  0  0  0  0  0  0  0  0  0  0  0
   -4.0103  -18.2170    9.0034 H   0  0  0  0  0  0  0  0  0  0  0  0
   -4.5841  -16.8410    9.9222 H   0  0  0  0  0  0  0  0  0  0  0  0
   -4.5155  -17.9507   11.8032 H   0  0  0  0  0  0  0  0  0  0  0  0
   -2.2265  -19.5233   10.8391 H   0  0  0  0  0  0  0  0  0  0  0  0
   -2.9310  -19.6177   12.4387 H   0  0  0  0  0  0  0  0  0  0  0  0
   -0.8858  -18.1413   12.1798 H   0  0  0  0  0  0  0  0  0  0  0  0
   -2.2405  -17.5314   13.0820 H   0  0  0  0  0  0  0  0  0  0  0  0
  1  2  1  0
  2  3  1  0
  3  4  1  0
  4  5  2  0
  4  6  1  0
  6  7  1  0
  7  8  1  0
  8  9  2  0
  9 10  1  0
 10 11  1  0
 11 12  1  0
 12 13  1  0
 13 14  2  0
 13 15  2  0
 13 16  1  0
 16 17  1  0
 16 18  1  0
 18 19  1  0
 19 20  1  0
 20 21  1  0
 21 22  1  0
 22 23  1  0
 10  6  2  0
 23 18  1  0
  1 24  1  0
  1 25  1  0
  1 26  1  0
  2 27  1  0
  2 28  1  0
  7 29  1  0
  8 30  1  0
 11 31  1  0
 11 32  1  0
 12 33  1  0
 17 34  1  0
 17 35  1  0
 17 36  1  0
 18 37  1  0
 19 38  1  0
 19 39  1  0
 20 40  1  0
 20 41  1  0
 21 42  1  0
 22 43  1  0
 22 44  1  0
 23 45  1  0
 23 46  1  0
M  END
>  <Energy>  (1256) 
598.16797721308092

>  <compound_id>  (1256) 
17758

>  <target_id>  (1256) 
1

>  <reference_id>  (1256) 
9

>  <inspiration_ids>  (1256) 
[63, 9]

>  <energy_score>  (1256) 
724.3080603877394

>  <distance_score>  (1256) 
12.288906493223369

>  <path>  (1256) 
/opt/xchem-fragalysis-2/maxwin/BulkDock/SCRATCH/511014/C17758-P9/C17758-P9.minimised.mol

>  <scratch_subdir>  (1256) 
/opt/xchem-fragalysis-2/maxwin/BulkDock/SCRATCH/511014/C17758-P9

>  <fragmenstein_runtime>  (1256) 
13.73382830619812

>  <fragmenstein_outcome>  (1256) 
too moved

>  <fragmenstein_mode>  (1256) 
expansion

>  <fragmenstein_error>  (1256) 


$$$$
C17760-P63
     RDKit          3D

 40 41  0  0  0  0  0  0  0  0999 V2000
   -1.9179  -17.8240   19.7899 C   0  0  0  0  0  0  0  0  0  0  0  0
   -1.6994  -16.7429   18.8167 N   0  0  0  0  0  0  0  0  0  0  0  0
   -3.2204  -17.0009   18.5309 C   0  0  0  0  0  0  0  0  0  0  0  0
   -3.8016  -18.3288   17.8494 C   0  0  0  0  0  0  0  0  0  0  0  0
   -4.1787  -19.4782   18.8364 C   0  0  0  0  0  0  0  0  0  0  0  0
   -5.4411  -20.2525   18.4595 C   0  0  0  0  0  0  0  0  0  0  0  0
   -6.6135  -19.3924   18.4175 N   0  0  0  0  0  0  0  0  0  0  0  0
   -6.3344  -18.0563   17.8890 C   0  0  0  0  0  0  0  0  0  0  0  0
   -5.0660  -17.9810   17.0275 C   0  0  0  0  0  0  0  0  0  0  0  0
   -1.4624  -15.3384   19.0139 C   0  0  0  0  0  0  0  0  0  0  0  0
   -1.4727  -14.6770   20.0211 O   0  0  0  0  0  0  0  0  0  0  0  0
   -1.0300  -14.6342   17.7133 C   0  0  0  0  0  0  0  0  0  0  0  0
    0.4727  -14.9279   17.5573 C   0  0  0  0  0  0  0  0  0  0  0  0
    1.5070  -13.9972   17.1402 N   0  0  0  0  0  0  0  0  0  0  0  0
    1.7826  -12.6705   15.9287 C   0  0  0  0  0  0  0  0  0  0  0  0
    3.0831  -11.7200   16.7857 C   0  0  0  0  0  0  0  0  0  0  0  0
    3.3947  -12.6612   18.1151 N   0  0  0  0  0  0  0  0  0  0  0  0
    2.7072  -13.8540   18.2249 C   0  0  0  0  0  0  0  0  0  0  0  0
   -0.9981  -17.7838   20.3954 H   0  0  0  0  0  0  0  0  0  0  0  0
   -2.6781  -17.6760   20.5701 H   0  0  0  0  0  0  0  0  0  0  0  0
   -1.8404  -18.8130   19.3354 H   0  0  0  0  0  0  0  0  0  0  0  0
   -3.8580  -16.6466   19.3609 H   0  0  0  0  0  0  0  0  0  0  0  0
   -3.4088  -16.2208   17.7771 H   0  0  0  0  0  0  0  0  0  0  0  0
   -3.0383  -18.6911   17.1484 H   0  0  0  0  0  0  0  0  0  0  0  0
   -4.3217  -19.0755   19.8465 H   0  0  0  0  0  0  0  0  0  0  0  0
   -3.3521  -20.1960   18.8926 H   0  0  0  0  0  0  0  0  0  0  0  0
   -5.2924  -20.7330   17.4922 H   0  0  0  0  0  0  0  0  0  0  0  0
   -5.6121  -21.0590   19.1808 H   0  0  0  0  0  0  0  0  0  0  0  0
   -7.0442  -19.3108   19.3364 H   0  0  0  0  0  0  0  0  0  0  0  0
   -6.2300  -17.3596   18.7303 H   0  0  0  0  0  0  0  0  0  0  0  0
   -7.1983  -17.7071   17.3152 H   0  0  0  0  0  0  0  0  0  0  0  0
   -5.1263  -18.6754   16.1833 H   0  0  0  0  0  0  0  0  0  0  0  0
   -4.9874  -16.9853   16.5765 H   0  0  0  0  0  0  0  0  0  0  0  0
   -1.6263  -14.9844   16.8700 H   0  0  0  0  0  0  0  0  0  0  0  0
   -1.2209  -13.5655   17.8441 H   0  0  0  0  0  0  0  0  0  0  0  0
    0.7841  -15.1573   18.5876 H   0  0  0  0  0  0  0  0  0  0  0  0
    0.7133  -15.8820   17.1088 H   0  0  0  0  0  0  0  0  0  0  0  0
    1.5458  -12.7107   14.8688 H   0  0  0  0  0  0  0  0  0  0  0  0
    3.6151  -10.8486   16.4903 H   0  0  0  0  0  0  0  0  0  0  0  0
    2.8283  -14.6712   18.9227 H   0  0  0  0  0  0  0  0  0  0  0  0
  1  2  1  0
  2  3  1  0
  3  4  1  0
  4  5  1  0
  5  6  1  0
  6  7  1  0
  7  8  1  0
  8  9  1  0
  2 10  1  0
 10 11  2  0
 10 12  1  0
 12 13  1  0
 13 14  1  0
 14 15  1  0
 15 16  2  0
 16 17  1  0
 17 18  2  0
  9  4  1  0
 18 14  1  0
  1 19  1  0
  1 20  1  0
  1 21  1  0
  3 22  1  0
  3 23  1  0
  4 24  1  0
  5 25  1  0
  5 26  1  0
  6 27  1  0
  6 28  1  0
  7 29  1  0
  8 30  1  0
  8 31  1  0
  9 32  1  0
  9 33  1  0
 12 34  1  0
 12 35  1  0
 13 36  1  0
 13 37  1  0
 15 38  1  0
 16 39  1  0
 18 40  1  0
M  END
>  <Energy>  (1257) 
253.27086808082586

>  <compound_id>  (1257) 
17760

>  <target_id>  (1257) 
1

>  <reference_id>  (1257) 
63

>  <inspiration_ids>  (1257) 
[63, 9]

>  <energy_score>  (1257) 
245.40756757854146

>  <distance_score>  (1257) 
12.680697275547153

>  <path>  (1257) 
/opt/xchem-fragalysis-2/maxwin/BulkDock/SCRATCH/511014/C17760-P63/C17760-P63.minimised.mol

>  <scratch_subdir>  (1257) 
/opt/xchem-fragalysis-2/maxwin/BulkDock/SCRATCH/511014/C17760-P63

>  <fragmenstein_runtime>  (1257) 
16.754164457321167

>  <fragmenstein_outcome>  (1257) 
too moved

>  <fragmenstein_mode>  (1257) 
expansion

>  <fragmenstein_error>  (1257) 


$$$$
C17760-P9
     RDKit          3D

 40 41  0  0  0  0  0  0  0  0999 V2000
   -1.5575  -18.1753   20.8766 C   0  0  0  0  0  0  0  0  0  0  0  0
   -0.3650  -17.8061   20.0914 N   0  0  0  0  0  0  0  0  0  0  0  0
   -1.3576  -18.1031   18.8789 C   0  0  0  0  0  0  0  0  0  0  0  0
   -2.1156  -19.5123   18.6192 C   0  0  0  0  0  0  0  0  0  0  0  0
   -3.6319  -19.4962   19.0146 C   0  0  0  0  0  0  0  0  0  0  0  0
   -4.5294  -20.4443   18.1945 C   0  0  0  0  0  0  0  0  0  0  0  0
   -3.7985  -21.6532   17.8695 N   0  0  0  0  0  0  0  0  0  0  0  0
   -2.6800  -21.3746   16.9652 C   0  0  0  0  0  0  0  0  0  0  0  0
   -2.0511  -19.9754   17.1477 C   0  0  0  0  0  0  0  0  0  0  0  0
    0.2839  -16.5214   19.9077 C   0  0  0  0  0  0  0  0  0  0  0  0
   -0.0412  -15.4206   20.2772 O   0  0  0  0  0  0  0  0  0  0  0  0
    1.6555  -16.6289   19.2141 C   0  0  0  0  0  0  0  0  0  0  0  0
    2.8304  -16.4426   20.2115 C   0  0  0  0  0  0  0  0  0  0  0  0
    3.5286  -15.1509   20.3007 N   0  0  0  0  0  0  0  0  0  0  0  0
    4.5314  -14.6932   19.4803 C   0  0  0  0  0  0  0  0  0  0  0  0
    5.1001  -13.6254   20.1452 C   0  0  0  0  0  0  0  0  0  0  0  0
    4.4726  -13.4013   21.3375 N   0  0  0  0  0  0  0  0  0  0  0  0
    3.5528  -14.3393   21.4128 C   0  0  0  0  0  0  0  0  0  0  0  0
   -1.2757  -17.8689   21.8962 H   0  0  0  0  0  0  0  0  0  0  0  0
   -1.6906  -19.2542   20.9904 H   0  0  0  0  0  0  0  0  0  0  0  0
   -2.4650  -17.5745   20.7193 H   0  0  0  0  0  0  0  0  0  0  0  0
   -2.0302  -17.2422   18.7246 H   0  0  0  0  0  0  0  0  0  0  0  0
   -0.6597  -18.0204   18.0352 H   0  0  0  0  0  0  0  0  0  0  0  0
   -1.5970  -20.2875   19.1994 H   0  0  0  0  0  0  0  0  0  0  0  0
   -4.0334  -18.4805   18.9168 H   0  0  0  0  0  0  0  0  0  0  0  0
   -3.7185  -19.7659   20.0741 H   0  0  0  0  0  0  0  0  0  0  0  0
   -4.8791  -19.9401   17.2864 H   0  0  0  0  0  0  0  0  0  0  0  0
   -5.4212  -20.6918   18.7807 H   0  0  0  0  0  0  0  0  0  0  0  0
   -4.3974  -22.3637   17.4342 H   0  0  0  0  0  0  0  0  0  0  0  0
   -1.9138  -22.1386   17.1387 H   0  0  0  0  0  0  0  0  0  0  0  0
   -2.9959  -21.4789   15.9215 H   0  0  0  0  0  0  0  0  0  0  0  0
   -2.5749  -19.2474   16.5145 H   0  0  0  0  0  0  0  0  0  0  0  0
   -1.0107  -20.0049   16.8033 H   0  0  0  0  0  0  0  0  0  0  0  0
    1.7015  -15.8891   18.4089 H   0  0  0  0  0  0  0  0  0  0  0  0
    1.7324  -17.6223   18.7570 H   0  0  0  0  0  0  0  0  0  0  0  0
    2.5130  -16.7006   21.2294 H   0  0  0  0  0  0  0  0  0  0  0  0
    3.6193  -17.1572   19.9409 H   0  0  0  0  0  0  0  0  0  0  0  0
    4.7588  -15.1688   18.5370 H   0  0  0  0  0  0  0  0  0  0  0  0
    5.9142  -12.9857   19.8380 H   0  0  0  0  0  0  0  0  0  0  0  0
    2.8798  -14.4921   22.2473 H   0  0  0  0  0  0  0  0  0  0  0  0
  1  2  1  0
  2  3  1  0
  3  4  1  0
  4  5  1  0
  5  6  1  0
  6  7  1  0
  7  8  1  0
  8  9  1  0
  2 10  1  0
 10 11  2  0
 10 12  1  0
 12 13  1  0
 13 14  1  0
 14 15  1  0
 15 16  2  0
 16 17  1  0
 17 18  2  0
  9  4  1  0
 18 14  1  0
  1 19  1  0
  1 20  1  0
  1 21  1  0
  3 22  1  0
  3 23  1  0
  4 24  1  0
  5 25  1  0
  5 26  1  0
  6 27  1  0
  6 28  1  0
  7 29  1  0
  8 30  1  0
  8 31  1  0
  9 32  1  0
  9 33  1  0
 12 34  1  0
 12 35  1  0
 13 36  1  0
 13 37  1  0
 15 38  1  0
 16 39  1  0
 18 40  1  0
M  END
>  <Energy>  (1258) 
73.94092876296493

>  <compound_id>  (1258) 
17760

>  <target_id>  (1258) 
1

>  <reference_id>  (1258) 
9

>  <inspiration_ids>  (1258) 
[63, 9]

>  <energy_score>  (1258) 
66.07762826068193

>  <distance_score>  (1258) 
13.247958748627639

>  <path>  (1258) 
/opt/xchem-fragalysis-2/maxwin/BulkDock/SCRATCH/511014/C17760-P9/C17760-P9.minimised.mol

>  <scratch_subdir>  (1258) 
/opt/xchem-fragalysis-2/maxwin/BulkDock/SCRATCH/511014/C17760-P9

>  <fragmenstein_runtime>  (1258) 
19.852593183517456

>  <fragmenstein_outcome>  (1258) 
too moved

>  <fragmenstein_mode>  (1258) 
expansion

>  <fragmenstein_error>  (1258) 


$$$$
C17761-P63
     RDKit          3D

 43 44  0  0  0  0  0  0  0  0999 V2000
    6.7024   -7.2194   15.6121 C   0  0  0  0  0  0  0  0  0  0  0  0
    6.0541   -8.3526   14.2267 C   0  0  0  0  0  0  0  0  0  0  0  0
    6.8741   -8.0701   13.3765 N   0  0  0  0  0  0  0  0  0  0  0  0
    5.8834   -7.5030   12.9393 C   0  0  0  0  0  0  0  0  0  0  0  0
    4.4038   -7.8548   13.1811 C   0  0  0  0  0  0  0  0  0  0  0  0
    4.4941   -9.1254   13.7359 N   0  0  0  0  0  0  0  0  0  0  0  0
    3.3596  -10.7234   13.8606 C   0  0  0  0  0  0  0  0  0  0  0  0
    1.4505  -11.8252   13.6586 C   0  0  0  0  0  0  0  0  0  0  0  0
    0.1196  -13.3811   13.1017 C   0  0  0  0  0  0  0  0  0  0  0  0
    0.2903  -14.1422   12.1595 O   0  0  0  0  0  0  0  0  0  0  0  0
   -1.3219  -13.3293   14.0661 N   0  0  0  0  0  0  0  0  0  0  0  0
   -3.1596  -14.2847   13.9005 C   0  0  0  0  0  0  0  0  0  0  0  0
   -1.5132  -14.4364   15.6997 C   0  0  0  0  0  0  0  0  0  0  0  0
   -2.7710  -15.5242   16.4257 C   0  0  0  0  0  0  0  0  0  0  0  0
   -3.1434  -16.9873   15.9496 C   0  0  0  0  0  0  0  0  0  0  0  0
   -4.4912  -17.5421   16.4610 C   0  0  0  0  0  0  0  0  0  0  0  0
   -4.7479  -17.1591   17.8340 N   0  0  0  0  0  0  0  0  0  0  0  0
   -4.8303  -15.7049   17.9722 C   0  0  0  0  0  0  0  0  0  0  0  0
   -4.0877  -14.8571   16.9067 C   0  0  0  0  0  0  0  0  0  0  0  0
    7.7536   -7.1483   15.3814 H   0  0  0  0  0  0  0  0  0  0  0  0
    6.4593   -7.3383   16.6731 H   0  0  0  0  0  0  0  0  0  0  0  0
    6.3105   -6.2382   15.6304 H   0  0  0  0  0  0  0  0  0  0  0  0
    6.5287   -7.6333   12.0242 H   0  0  0  0  0  0  0  0  0  0  0  0
    3.7090   -7.6157   12.3729 H   0  0  0  0  0  0  0  0  0  0  0  0
    4.1808  -11.2503   14.3947 H   0  0  0  0  0  0  0  0  0  0  0  0
    3.5609  -10.5998   12.7970 H   0  0  0  0  0  0  0  0  0  0  0  0
    1.1602  -11.4515   12.6120 H   0  0  0  0  0  0  0  0  0  0  0  0
    1.3723  -12.3660   14.5731 H   0  0  0  0  0  0  0  0  0  0  0  0
   -4.0198  -13.6845   14.2870 H   0  0  0  0  0  0  0  0  0  0  0  0
   -3.6214  -14.3638   12.8679 H   0  0  0  0  0  0  0  0  0  0  0  0
   -3.3408  -15.1560   14.5126 H   0  0  0  0  0  0  0  0  0  0  0  0
   -0.5660  -14.6346   16.2286 H   0  0  0  0  0  0  0  0  0  0  0  0
   -1.8049  -13.6626   16.4470 H   0  0  0  0  0  0  0  0  0  0  0  0
   -2.2431  -15.7220   17.3761 H   0  0  0  0  0  0  0  0  0  0  0  0
   -2.3372  -17.6688   16.2445 H   0  0  0  0  0  0  0  0  0  0  0  0
   -3.2794  -17.0606   14.8780 H   0  0  0  0  0  0  0  0  0  0  0  0
   -4.4842  -18.6349   16.3783 H   0  0  0  0  0  0  0  0  0  0  0  0
   -5.3113  -17.1949   15.8192 H   0  0  0  0  0  0  0  0  0  0  0  0
   -3.9921  -17.5114   18.4224 H   0  0  0  0  0  0  0  0  0  0  0  0
   -4.4433  -15.4386   18.9634 H   0  0  0  0  0  0  0  0  0  0  0  0
   -5.8862  -15.4091   17.9752 H   0  0  0  0  0  0  0  0  0  0  0  0
   -3.8803  -13.8678   17.3291 H   0  0  0  0  0  0  0  0  0  0  0  0
   -4.7737  -14.7068   16.0674 H   0  0  0  0  0  0  0  0  0  0  0  0
  1  2  1  0
  2  3  2  0
  3  4  1  0
  4  5  2  0
  5  6  1  0
  6  7  1  0
  7  8  1  0
  8  9  1  0
  9 10  2  0
  9 11  1  0
 11 12  1  0
 11 13  1  0
 13 14  1  0
 14 15  1  0
 15 16  1  0
 16 17  1  0
 17 18  1  0
 18 19  1  0
  6  2  1  0
 19 14  1  0
  1 20  1  0
  1 21  1  0
  1 22  1  0
  4 23  1  0
  5 24  1  0
  7 25  1  0
  7 26  1  0
  8 27  1  0
  8 28  1  0
 12 29  1  0
 12 30  1  0
 12 31  1  0
 13 32  1  0
 13 33  1  0
 14 34  1  0
 15 35  1  0
 15 36  1  0
 16 37  1  0
 16 38  1  0
 17 39  1  0
 18 40  1  0
 18 41  1  0
 19 42  1  0
 19 43  1  0
M  END
>  <Energy>  (1259) 
1095.0532611783103

>  <compound_id>  (1259) 
17761

>  <target_id>  (1259) 
1

>  <reference_id>  (1259) 
63

>  <inspiration_ids>  (1259) 
[63, 9]

>  <energy_score>  (1259) 
1095.0299878664582

>  <distance_score>  (1259) 
12.066651467187892

>  <path>  (1259) 
/opt/xchem-fragalysis-2/maxwin/BulkDock/SCRATCH/511014/C17761-P63/C17761-P63.minimised.mol

>  <scratch_subdir>  (1259) 
/opt/xchem-fragalysis-2/maxwin/BulkDock/SCRATCH/511014/C17761-P63

>  <fragmenstein_runtime>  (1259) 
19.416812896728516

>  <fragmenstein_outcome>  (1259) 
too moved

>  <fragmenstein_mode>  (1259) 
expansion

>  <fragmenstein_error>  (1259) 


$$$$
C17761-P9
     RDKit          3D

 43 44  0  0  0  0  0  0  0  0999 V2000
    6.9039   -7.1953   15.3045 C   0  0  0  0  0  0  0  0  0  0  0  0
    5.8972   -7.9971   14.0716 C   0  0  0  0  0  0  0  0  0  0  0  0
    5.6691   -7.1470   13.1153 N   0  0  0  0  0  0  0  0  0  0  0  0
    4.2755   -7.1775   12.8763 C   0  0  0  0  0  0  0  0  0  0  0  0
    3.9586   -7.7183   14.0361 C   0  0  0  0  0  0  0  0  0  0  0  0
    4.4297   -8.9978   13.8014 N   0  0  0  0  0  0  0  0  0  0  0  0
    3.3288  -10.5152   14.1412 C   0  0  0  0  0  0  0  0  0  0  0  0
    1.5829  -11.9054   13.8098 C   0  0  0  0  0  0  0  0  0  0  0  0
    0.1482  -13.3051   13.0356 C   0  0  0  0  0  0  0  0  0  0  0  0
    0.2875  -13.9479   12.0069 O   0  0  0  0  0  0  0  0  0  0  0  0
   -1.3918  -13.3136   14.0310 N   0  0  0  0  0  0  0  0  0  0  0  0
   -3.2944  -14.1605   13.7234 C   0  0  0  0  0  0  0  0  0  0  0  0
   -1.6304  -14.5992   15.4750 C   0  0  0  0  0  0  0  0  0  0  0  0
   -2.9455  -15.6366   16.1634 C   0  0  0  0  0  0  0  0  0  0  0  0
   -4.2566  -14.9741   16.7070 C   0  0  0  0  0  0  0  0  0  0  0  0
   -5.3916  -15.9925   16.9361 C   0  0  0  0  0  0  0  0  0  0  0  0
   -5.7631  -16.6436   15.6913 N   0  0  0  0  0  0  0  0  0  0  0  0
   -4.6549  -17.3000   15.0103 C   0  0  0  0  0  0  0  0  0  0  0  0
   -3.2760  -17.0906   15.6544 C   0  0  0  0  0  0  0  0  0  0  0  0
    6.5467   -6.1923   15.4231 H   0  0  0  0  0  0  0  0  0  0  0  0
    6.7101   -7.2624   16.3668 H   0  0  0  0  0  0  0  0  0  0  0  0
    7.9465   -7.0774   15.0550 H   0  0  0  0  0  0  0  0  0  0  0  0
    3.9120   -6.4177   12.1795 H   0  0  0  0  0  0  0  0  0  0  0  0
    3.4729   -7.3529   14.9357 H   0  0  0  0  0  0  0  0  0  0  0  0
    3.6457  -10.6182   15.2183 H   0  0  0  0  0  0  0  0  0  0  0  0
    4.3753  -10.9551   13.9495 H   0  0  0  0  0  0  0  0  0  0  0  0
    1.9144  -12.5791   14.6004 H   0  0  0  0  0  0  0  0  0  0  0  0
    0.8379  -11.6029   14.3746 H   0  0  0  0  0  0  0  0  0  0  0  0
   -4.1405  -13.4557   13.9421 H   0  0  0  0  0  0  0  0  0  0  0  0
   -3.6335  -14.8940   14.4423 H   0  0  0  0  0  0  0  0  0  0  0  0
   -3.7005  -14.4146   12.6769 H   0  0  0  0  0  0  0  0  0  0  0  0
   -1.9924  -13.8826   16.2753 H   0  0  0  0  0  0  0  0  0  0  0  0
   -0.7739  -14.4266   16.0961 H   0  0  0  0  0  0  0  0  0  0  0  0
   -2.4414  -15.8638   17.1218 H   0  0  0  0  0  0  0  0  0  0  0  0
   -4.6299  -14.1830   16.0534 H   0  0  0  0  0  0  0  0  0  0  0  0
   -4.0305  -14.4778   17.6598 H   0  0  0  0  0  0  0  0  0  0  0  0
   -6.2648  -15.4599   17.3291 H   0  0  0  0  0  0  0  0  0  0  0  0
   -5.1043  -16.7297   17.6953 H   0  0  0  0  0  0  0  0  0  0  0  0
   -6.5392  -17.2858   15.8342 H   0  0  0  0  0  0  0  0  0  0  0  0
   -4.8494  -18.3777   14.9594 H   0  0  0  0  0  0  0  0  0  0  0  0
   -4.6370  -16.9480   13.9737 H   0  0  0  0  0  0  0  0  0  0  0  0
   -2.5110  -17.5133   15.0122 H   0  0  0  0  0  0  0  0  0  0  0  0
   -3.2497  -17.7425   16.5420 H   0  0  0  0  0  0  0  0  0  0  0  0
  1  2  1  0
  2  3  2  0
  3  4  1  0
  4  5  2  0
  5  6  1  0
  6  7  1  0
  7  8  1  0
  8  9  1  0
  9 10  2  0
  9 11  1  0
 11 12  1  0
 11 13  1  0
 13 14  1  0
 14 15  1  0
 15 16  1  0
 16 17  1  0
 17 18  1  0
 18 19  1  0
  6  2  1  0
 19 14  1  0
  1 20  1  0
  1 21  1  0
  1 22  1  0
  4 23  1  0
  5 24  1  0
  7 25  1  0
  7 26  1  0
  8 27  1  0
  8 28  1  0
 12 29  1  0
 12 30  1  0
 12 31  1  0
 13 32  1  0
 13 33  1  0
 14 34  1  0
 15 35  1  0
 15 36  1  0
 16 37  1  0
 16 38  1  0
 17 39  1  0
 18 40  1  0
 18 41  1  0
 19 42  1  0
 19 43  1  0
M  END
>  <Energy>  (1260) 
1051.7214976936086

>  <compound_id>  (1260) 
17761

>  <target_id>  (1260) 
1

>  <reference_id>  (1260) 
9

>  <inspiration_ids>  (1260) 
[63, 9]

>  <energy_score>  (1260) 
1051.6982243817474

>  <distance_score>  (1260) 
11.955870645810599

>  <path>  (1260) 
/opt/xchem-fragalysis-2/maxwin/BulkDock/SCRATCH/511014/C17761-P9/C17761-P9.minimised.mol

>  <scratch_subdir>  (1260) 
/opt/xchem-fragalysis-2/maxwin/BulkDock/SCRATCH/511014/C17761-P9

>  <fragmenstein_runtime>  (1260) 
14.186845779418945

>  <fragmenstein_outcome>  (1260) 
too moved

>  <fragmenstein_mode>  (1260) 
expansion

>  <fragmenstein_error>  (1260) 


$$$$
C17762-P63
     RDKit          3D

 45 47  0  0  0  0  0  0  0  0999 V2000
    1.2743  -16.5228    9.5382 C   0  0  0  0  0  0  0  0  0  0  0  0
    1.1777  -16.0518   10.8604 O   0  0  0  0  0  0  0  0  0  0  0  0
    0.4055  -14.9041   11.3022 C   0  0  0  0  0  0  0  0  0  0  0  0
    0.9960  -13.0204   11.2507 C   0  0  0  0  0  0  0  0  0  0  0  0
    0.2165  -12.2297   11.7667 O   0  0  0  0  0  0  0  0  0  0  0  0
    2.5854  -12.6410   10.4883 N   0  0  0  0  0  0  0  0  0  0  0  0
    3.3671  -11.0942   10.1761 C   0  0  0  0  0  0  0  0  0  0  0  0
    5.1516  -10.4096   10.3292 C   0  0  0  0  0  0  0  0  0  0  0  0
    6.1745  -10.5034   12.0052 N   0  0  0  0  0  0  0  0  0  0  0  0
    7.5405   -8.8156   12.1227 C   0  0  0  0  0  0  0  0  0  0  0  0
    8.3056   -7.1315   13.6983 C   0  0  0  0  0  0  0  0  0  0  0  0
    7.8668   -6.2356   15.1989 C   0  0  0  0  0  0  0  0  0  0  0  0
    8.4014   -4.3000   15.3465 C   0  0  0  0  0  0  0  0  0  0  0  0
    9.6028   -3.8763   14.9101 C   0  0  0  0  0  0  0  0  0  0  0  0
   10.0988   -5.3298   14.2184 S   0  0  0  0  0  0  0  0  0  0  0  0
    8.3357   -9.3900   10.3161 C   0  0  0  0  0  0  0  0  0  0  0  0
    6.8564  -10.1261    9.0959 N   0  0  0  0  0  0  0  0  0  0  0  0
   -1.1261  -15.7216   11.5859 C   0  0  0  0  0  0  0  0  0  0  0  0
   -2.2584  -15.8964   10.5365 C   0  0  0  0  0  0  0  0  0  0  0  0
   -3.5782  -16.4505   11.1448 C   0  0  0  0  0  0  0  0  0  0  0  0
   -3.4040  -17.2299   12.3635 N   0  0  0  0  0  0  0  0  0  0  0  0
   -2.2115  -18.0606   12.3133 C   0  0  0  0  0  0  0  0  0  0  0  0
   -0.9340  -17.2849   11.9008 C   0  0  0  0  0  0  0  0  0  0  0  0
    1.7432  -15.8009    8.8683 H   0  0  0  0  0  0  0  0  0  0  0  0
    1.9362  -17.3951    9.5560 H   0  0  0  0  0  0  0  0  0  0  0  0
    0.3183  -16.8762    9.1554 H   0  0  0  0  0  0  0  0  0  0  0  0
    0.6466  -14.9162   12.3646 H   0  0  0  0  0  0  0  0  0  0  0  0
    2.9717  -13.4772   10.0718 H   0  0  0  0  0  0  0  0  0  0  0  0
    2.7430  -10.3896   10.7166 H   0  0  0  0  0  0  0  0  0  0  0  0
    3.2543  -11.0536    9.0879 H   0  0  0  0  0  0  0  0  0  0  0  0
    6.9099   -6.4446   15.7107 H   0  0  0  0  0  0  0  0  0  0  0  0
    7.6432   -3.5525   15.5953 H   0  0  0  0  0  0  0  0  0  0  0  0
   10.1212   -2.9262   14.8881 H   0  0  0  0  0  0  0  0  0  0  0  0
    8.9099   -8.7509    9.6429 H   0  0  0  0  0  0  0  0  0  0  0  0
    7.0230  -10.8437    8.3931 H   0  0  0  0  0  0  0  0  0  0  0  0
   -1.5408  -15.2543   12.4757 H   0  0  0  0  0  0  0  0  0  0  0  0
   -2.4933  -14.9943   10.0014 H   0  0  0  0  0  0  0  0  0  0  0  0
   -1.9414  -16.6058    9.7606 H   0  0  0  0  0  0  0  0  0  0  0  0
   -4.2389  -15.6083   11.3792 H   0  0  0  0  0  0  0  0  0  0  0  0
   -4.0918  -17.0501   10.3834 H   0  0  0  0  0  0  0  0  0  0  0  0
   -4.2221  -17.8197   12.5248 H   0  0  0  0  0  0  0  0  0  0  0  0
   -2.3698  -18.8892   11.6133 H   0  0  0  0  0  0  0  0  0  0  0  0
   -2.0590  -18.5190   13.2959 H   0  0  0  0  0  0  0  0  0  0  0  0
   -0.1348  -17.4648   12.6089 H   0  0  0  0  0  0  0  0  0  0  0  0
   -0.5742  -17.7866   10.9931 H   0  0  0  0  0  0  0  0  0  0  0  0
  1  2  1  0
  2  3  1  0
  3  4  1  0
  4  5  2  0
  4  6  1  0
  6  7  1  0
  7  8  1  0
  8  9  2  0
  9 10  1  0
 10 11  1  0
 11 12  2  0
 12 13  1  0
 13 14  2  0
 14 15  1  0
 10 16  2  0
 16 17  1  0
  3 18  1  0
 18 19  1  0
 19 20  1  0
 20 21  1  0
 21 22  1  0
 22 23  1  0
 17  8  1  0
 23 18  1  0
 15 11  1  0
  1 24  1  0
  1 25  1  0
  1 26  1  0
  3 27  1  0
  6 28  1  0
  7 29  1  0
  7 30  1  0
 12 31  1  0
 13 32  1  0
 14 33  1  0
 16 34  1  0
 17 35  1  0
 18 36  1  0
 19 37  1  0
 19 38  1  0
 20 39  1  0
 20 40  1  0
 21 41  1  0
 22 42  1  0
 22 43  1  0
 23 44  1  0
 23 45  1  0
M  END
>  <Energy>  (1261) 
1884.0389171616887

>  <compound_id>  (1261) 
17762

>  <target_id>  (1261) 
1

>  <reference_id>  (1261) 
63

>  <inspiration_ids>  (1261) 
[63, 9]

>  <energy_score>  (1261) 
1812.848596792485

>  <distance_score>  (1261) 
12.49356017417912

>  <path>  (1261) 
/opt/xchem-fragalysis-2/maxwin/BulkDock/SCRATCH/511014/C17762-P63/C17762-P63.minimised.mol

>  <scratch_subdir>  (1261) 
/opt/xchem-fragalysis-2/maxwin/BulkDock/SCRATCH/511014/C17762-P63

>  <fragmenstein_runtime>  (1261) 
20.823071718215942

>  <fragmenstein_outcome>  (1261) 
too moved

>  <fragmenstein_mode>  (1261) 
expansion

>  <fragmenstein_error>  (1261) 


$$$$
C17762-P9
     RDKit          3D

 45 47  0  0  0  0  0  0  0  0999 V2000
   -0.7963  -19.9008   16.6478 C   0  0  0  0  0  0  0  0  0  0  0  0
   -0.6629  -19.8864   18.0636 O   0  0  0  0  0  0  0  0  0  0  0  0
   -1.6951  -19.1860   18.7741 C   0  0  0  0  0  0  0  0  0  0  0  0
   -1.4901  -17.6019   18.6829 C   0  0  0  0  0  0  0  0  0  0  0  0
   -2.4417  -16.9373   18.3753 O   0  0  0  0  0  0  0  0  0  0  0  0
   -0.1378  -17.2018   19.0965 N   0  0  0  0  0  0  0  0  0  0  0  0
    0.4325  -15.8764   19.3536 C   0  0  0  0  0  0  0  0  0  0  0  0
    1.9369  -15.6540   19.4885 C   0  0  0  0  0  0  0  0  0  0  0  0
    2.5359  -15.2538   20.6044 N   0  0  0  0  0  0  0  0  0  0  0  0
    3.7868  -14.7748   20.2732 C   0  0  0  0  0  0  0  0  0  0  0  0
    4.7077  -14.0716   21.3357 C   0  0  0  0  0  0  0  0  0  0  0  0
    5.9174  -13.4472   21.1265 C   0  0  0  0  0  0  0  0  0  0  0  0
    6.4835  -12.9611   22.3446 C   0  0  0  0  0  0  0  0  0  0  0  0
    5.6682  -13.1863   23.4293 C   0  0  0  0  0  0  0  0  0  0  0  0
    4.2301  -13.9865   22.9829 S   0  0  0  0  0  0  0  0  0  0  0  0
    4.0057  -14.9870   18.9381 C   0  0  0  0  0  0  0  0  0  0  0  0
    2.8193  -15.4863   18.4365 N   0  0  0  0  0  0  0  0  0  0  0  0
   -3.1138  -19.8073   18.4370 C   0  0  0  0  0  0  0  0  0  0  0  0
   -4.3452  -19.1137   19.0685 C   0  0  0  0  0  0  0  0  0  0  0  0
   -5.5503  -20.0484   19.3140 C   0  0  0  0  0  0  0  0  0  0  0  0
   -5.5924  -21.1107   18.3384 N   0  0  0  0  0  0  0  0  0  0  0  0
   -4.4341  -21.9928   18.3951 C   0  0  0  0  0  0  0  0  0  0  0  0
   -3.1511  -21.2972   18.8511 C   0  0  0  0  0  0  0  0  0  0  0  0
    0.1917  -20.0809   16.2155 H   0  0  0  0  0  0  0  0  0  0  0  0
   -1.1810  -18.9551   16.2621 H   0  0  0  0  0  0  0  0  0  0  0  0
   -1.4500  -20.7219   16.3404 H   0  0  0  0  0  0  0  0  0  0  0  0
   -1.5146  -19.4015   19.8369 H   0  0  0  0  0  0  0  0  0  0  0  0
    0.3872  -18.0305   19.3628 H   0  0  0  0  0  0  0  0  0  0  0  0
   -0.0241  -15.5601   20.3005 H   0  0  0  0  0  0  0  0  0  0  0  0
    0.0254  -15.1895   18.6056 H   0  0  0  0  0  0  0  0  0  0  0  0
    6.3851  -13.3422   20.1641 H   0  0  0  0  0  0  0  0  0  0  0  0
    7.4396  -12.4637   22.4266 H   0  0  0  0  0  0  0  0  0  0  0  0
    5.8466  -12.9177   24.4615 H   0  0  0  0  0  0  0  0  0  0  0  0
    4.8488  -14.8243   18.2979 H   0  0  0  0  0  0  0  0  0  0  0  0
    2.6104  -15.6494   17.4599 H   0  0  0  0  0  0  0  0  0  0  0  0
   -3.2543  -19.7610   17.3500 H   0  0  0  0  0  0  0  0  0  0  0  0
   -4.6606  -18.2993   18.4044 H   0  0  0  0  0  0  0  0  0  0  0  0
   -4.0680  -18.6517   20.0237 H   0  0  0  0  0  0  0  0  0  0  0  0
   -5.5050  -20.4655   20.3275 H   0  0  0  0  0  0  0  0  0  0  0  0
   -6.4716  -19.4576   19.2623 H   0  0  0  0  0  0  0  0  0  0  0  0
   -6.4688  -21.6231   18.2837 H   0  0  0  0  0  0  0  0  0  0  0  0
   -4.6381  -22.8453   19.0525 H   0  0  0  0  0  0  0  0  0  0  0  0
   -4.2398  -22.3854   17.3977 H   0  0  0  0  0  0  0  0  0  0  0  0
   -2.2919  -21.8429   18.4454 H   0  0  0  0  0  0  0  0  0  0  0  0
   -3.0723  -21.3636   19.9447 H   0  0  0  0  0  0  0  0  0  0  0  0
  1  2  1  0
  2  3  1  0
  3  4  1  0
  4  5  2  0
  4  6  1  0
  6  7  1  0
  7  8  1  0
  8  9  2  0
  9 10  1  0
 10 11  1  0
 11 12  2  0
 12 13  1  0
 13 14  2  0
 14 15  1  0
 10 16  2  0
 16 17  1  0
  3 18  1  0
 18 19  1  0
 19 20  1  0
 20 21  1  0
 21 22  1  0
 22 23  1  0
 17  8  1  0
 23 18  1  0
 15 11  1  0
  1 24  1  0
  1 25  1  0
  1 26  1  0
  3 27  1  0
  6 28  1  0
  7 29  1  0
  7 30  1  0
 12 31  1  0
 13 32  1  0
 14 33  1  0
 16 34  1  0
 17 35  1  0
 18 36  1  0
 19 37  1  0
 19 38  1  0
 20 39  1  0
 20 40  1  0
 21 41  1  0
 22 42  1  0
 22 43  1  0
 23 44  1  0
 23 45  1  0
M  END
>  <Energy>  (1262) 
56.126782008339973

>  <compound_id>  (1262) 
17762

>  <target_id>  (1262) 
1

>  <reference_id>  (1262) 
9

>  <inspiration_ids>  (1262) 
[63, 9]

>  <energy_score>  (1262) 
-15.063538360893745

>  <distance_score>  (1262) 
13.295128186213605

>  <path>  (1262) 
/opt/xchem-fragalysis-2/maxwin/BulkDock/SCRATCH/511014/C17762-P9/C17762-P9.minimised.mol

>  <scratch_subdir>  (1262) 
/opt/xchem-fragalysis-2/maxwin/BulkDock/SCRATCH/511014/C17762-P9

>  <fragmenstein_runtime>  (1262) 
32.55526566505432

>  <fragmenstein_outcome>  (1262) 
too moved

>  <fragmenstein_mode>  (1262) 
expansion

>  <fragmenstein_error>  (1262) 


$$$$
C17763-P63
     RDKit          3D

 44 45  0  0  0  0  0  0  0  0999 V2000
    5.9722   -7.9165   13.6905 C   0  0  0  0  0  0  0  0  0  0  0  0
    4.4100   -8.3536   13.4843 C   0  0  0  0  0  0  0  0  0  0  0  0
    3.9769   -9.9498   13.3144 N   0  0  0  0  0  0  0  0  0  0  0  0
    4.4768  -10.8978   14.0791 C   0  0  0  0  0  0  0  0  0  0  0  0
    5.1960  -11.3873   13.0801 C   0  0  0  0  0  0  0  0  0  0  0  0
    4.2600  -11.3088   11.4959 N   0  0  0  0  0  0  0  0  0  0  0  0
    3.1361  -10.6286   11.8775 C   0  0  0  0  0  0  0  0  0  0  0  0
    1.4823  -11.0312   11.5442 C   0  0  0  0  0  0  0  0  0  0  0  0
    1.0660  -12.4987   11.3072 N   0  0  0  0  0  0  0  0  0  0  0  0
    0.1822  -13.4317   12.1266 C   0  0  0  0  0  0  0  0  0  0  0  0
   -0.4637  -13.2147   13.1101 O   0  0  0  0  0  0  0  0  0  0  0  0
   -0.1178  -15.1583   11.5522 C   0  0  0  0  0  0  0  0  0  0  0  0
    0.4338  -15.8545   10.4568 O   0  0  0  0  0  0  0  0  0  0  0  0
    0.6554  -17.2494   10.5598 C   0  0  0  0  0  0  0  0  0  0  0  0
   -1.6429  -15.7727   11.8258 C   0  0  0  0  0  0  0  0  0  0  0  0
   -2.6476  -15.8801   10.6757 C   0  0  0  0  0  0  0  0  0  0  0  0
   -4.0549  -15.8855   11.3146 C   0  0  0  0  0  0  0  0  0  0  0  0
   -4.2467  -16.9544   12.3127 N   0  0  0  0  0  0  0  0  0  0  0  0
   -3.0945  -17.8826   12.3390 C   0  0  0  0  0  0  0  0  0  0  0  0
   -1.8360  -17.0933   12.6189 C   0  0  0  0  0  0  0  0  0  0  0  0
    6.3327   -7.4442   14.6010 H   0  0  0  0  0  0  0  0  0  0  0  0
    6.6404   -8.7083   13.8205 H   0  0  0  0  0  0  0  0  0  0  0  0
    6.4545   -7.5523   12.8036 H   0  0  0  0  0  0  0  0  0  0  0  0
    3.8000   -7.9587   14.2730 H   0  0  0  0  0  0  0  0  0  0  0  0
    3.9581   -7.8227   12.6390 H   0  0  0  0  0  0  0  0  0  0  0  0
    4.2914  -11.1263   15.1060 H   0  0  0  0  0  0  0  0  0  0  0  0
    5.8950  -12.1976   13.2810 H   0  0  0  0  0  0  0  0  0  0  0  0
    0.6492  -10.6688   12.0933 H   0  0  0  0  0  0  0  0  0  0  0  0
    1.3744  -10.3779   10.6741 H   0  0  0  0  0  0  0  0  0  0  0  0
    1.5192  -13.0081   10.6177 H   0  0  0  0  0  0  0  0  0  0  0  0
    0.4190  -15.5822   12.3795 H   0  0  0  0  0  0  0  0  0  0  0  0
    1.3245  -17.5413    9.7450 H   0  0  0  0  0  0  0  0  0  0  0  0
    1.1351  -17.5219   11.5018 H   0  0  0  0  0  0  0  0  0  0  0  0
   -0.2776  -17.8000   10.4235 H   0  0  0  0  0  0  0  0  0  0  0  0
   -2.0717  -15.0987   12.5430 H   0  0  0  0  0  0  0  0  0  0  0  0
   -2.4780  -16.7784   10.0701 H   0  0  0  0  0  0  0  0  0  0  0  0
   -2.5726  -15.0648    9.9726 H   0  0  0  0  0  0  0  0  0  0  0  0
   -4.8136  -15.9216   10.5276 H   0  0  0  0  0  0  0  0  0  0  0  0
   -4.2358  -14.9288   11.8195 H   0  0  0  0  0  0  0  0  0  0  0  0
   -4.3400  -16.5293   13.2375 H   0  0  0  0  0  0  0  0  0  0  0  0
   -3.2576  -18.6273   13.1271 H   0  0  0  0  0  0  0  0  0  0  0  0
   -2.9590  -18.4412   11.4077 H   0  0  0  0  0  0  0  0  0  0  0  0
   -0.9664  -17.7493   12.5757 H   0  0  0  0  0  0  0  0  0  0  0  0
   -2.0608  -16.7780   13.6369 H   0  0  0  0  0  0  0  0  0  0  0  0
  1  2  1  0
  2  3  1  0
  3  4  1  0
  4  5  2  0
  5  6  1  0
  6  7  2  0
  7  8  1  0
  8  9  1  0
  9 10  1  0
 10 11  2  0
 10 12  1  0
 12 13  1  0
 13 14  1  0
 12 15  1  0
 15 16  1  0
 16 17  1  0
 17 18  1  0
 18 19  1  0
 19 20  1  0
  7  3  1  0
 20 15  1  0
  1 21  1  0
  1 22  1  0
  1 23  1  0
  2 24  1  0
  2 25  1  0
  4 26  1  0
  5 27  1  0
  8 28  1  0
  8 29  1  0
  9 30  1  0
 12 31  1  0
 14 32  1  0
 14 33  1  0
 14 34  1  0
 15 35  1  0
 16 36  1  0
 16 37  1  0
 17 38  1  0
 17 39  1  0
 18 40  1  0
 19 41  1  0
 19 42  1  0
 20 43  1  0
 20 44  1  0
M  END
>  <Energy>  (1263) 
320.44092731708974

>  <compound_id>  (1263) 
17763

>  <target_id>  (1263) 
1

>  <reference_id>  (1263) 
63

>  <inspiration_ids>  (1263) 
[63, 9]

>  <energy_score>  (1263) 
251.85401571416503

>  <distance_score>  (1263) 
13.21505358353067

>  <path>  (1263) 
/opt/xchem-fragalysis-2/maxwin/BulkDock/SCRATCH/511014/C17763-P63/C17763-P63.minimised.mol

>  <scratch_subdir>  (1263) 
/opt/xchem-fragalysis-2/maxwin/BulkDock/SCRATCH/511014/C17763-P63

>  <fragmenstein_runtime>  (1263) 
20.426429271697998

>  <fragmenstein_outcome>  (1263) 
too moved

>  <fragmenstein_mode>  (1263) 
expansion

>  <fragmenstein_error>  (1263) 


$$$$
C17763-P9
     RDKit          3D

 44 45  0  0  0  0  0  0  0  0999 V2000
    4.3341   -8.1886   13.5762 C   0  0  0  0  0  0  0  0  0  0  0  0
    4.0477   -9.9003   13.3562 C   0  0  0  0  0  0  0  0  0  0  0  0
    3.0170  -10.3086   11.8488 N   0  0  0  0  0  0  0  0  0  0  0  0
    3.6287  -10.6295   10.6537 C   0  0  0  0  0  0  0  0  0  0  0  0
    2.7124  -11.1782    9.8997 C   0  0  0  0  0  0  0  0  0  0  0  0
    1.5744  -10.4857   10.3874 N   0  0  0  0  0  0  0  0  0  0  0  0
    1.5588  -10.9377   11.5885 C   0  0  0  0  0  0  0  0  0  0  0  0
    0.4314  -12.2803   12.1421 C   0  0  0  0  0  0  0  0  0  0  0  0
    0.3879  -13.9752   11.8222 N   0  0  0  0  0  0  0  0  0  0  0  0
   -0.8099  -14.9447   11.6638 C   0  0  0  0  0  0  0  0  0  0  0  0
   -1.9890  -14.7209   11.6491 O   0  0  0  0  0  0  0  0  0  0  0  0
   -0.5488  -16.5676   11.4018 C   0  0  0  0  0  0  0  0  0  0  0  0
    0.5926  -17.3524   11.2742 O   0  0  0  0  0  0  0  0  0  0  0  0
    1.2944  -17.2290   10.0536 C   0  0  0  0  0  0  0  0  0  0  0  0
   -1.5875  -17.5023   12.3407 C   0  0  0  0  0  0  0  0  0  0  0  0
   -2.2874  -18.6883   11.6834 C   0  0  0  0  0  0  0  0  0  0  0  0
   -3.3209  -19.2647   12.6911 C   0  0  0  0  0  0  0  0  0  0  0  0
   -4.4325  -18.3203   12.9710 N   0  0  0  0  0  0  0  0  0  0  0  0
   -4.0234  -16.9242   12.9011 C   0  0  0  0  0  0  0  0  0  0  0  0
   -2.5813  -16.8020   13.3298 C   0  0  0  0  0  0  0  0  0  0  0  0
    3.9843   -7.5817   12.7372 H   0  0  0  0  0  0  0  0  0  0  0  0
    5.3579   -7.8853   13.8064 H   0  0  0  0  0  0  0  0  0  0  0  0
    3.7617   -7.7518   14.3816 H   0  0  0  0  0  0  0  0  0  0  0  0
    3.5001  -10.3110   14.1841 H   0  0  0  0  0  0  0  0  0  0  0  0
    4.9807  -10.4930   13.2892 H   0  0  0  0  0  0  0  0  0  0  0  0
    4.4134  -10.0600   10.2344 H   0  0  0  0  0  0  0  0  0  0  0  0
    2.8284  -11.4797    8.8615 H   0  0  0  0  0  0  0  0  0  0  0  0
    0.5623  -12.3025   13.2070 H   0  0  0  0  0  0  0  0  0  0  0  0
   -0.5258  -11.8644   11.8956 H   0  0  0  0  0  0  0  0  0  0  0  0
    1.2337  -14.5013   11.8731 H   0  0  0  0  0  0  0  0  0  0  0  0
   -1.0518  -16.6614   10.4291 H   0  0  0  0  0  0  0  0  0  0  0  0
    0.6568  -17.4985    9.2066 H   0  0  0  0  0  0  0  0  0  0  0  0
    1.6878  -16.2211    9.9297 H   0  0  0  0  0  0  0  0  0  0  0  0
    2.1410  -17.9209   10.0754 H   0  0  0  0  0  0  0  0  0  0  0  0
   -0.9020  -18.1090   12.9549 H   0  0  0  0  0  0  0  0  0  0  0  0
   -2.7074  -18.3803   10.7274 H   0  0  0  0  0  0  0  0  0  0  0  0
   -1.5262  -19.4419   11.4619 H   0  0  0  0  0  0  0  0  0  0  0  0
   -2.8110  -19.5246   13.6277 H   0  0  0  0  0  0  0  0  0  0  0  0
   -3.7885  -20.1828   12.3399 H   0  0  0  0  0  0  0  0  0  0  0  0
   -4.7316  -18.4848   13.9288 H   0  0  0  0  0  0  0  0  0  0  0  0
   -4.1590  -16.5242   11.8909 H   0  0  0  0  0  0  0  0  0  0  0  0
   -4.6681  -16.3306   13.5591 H   0  0  0  0  0  0  0  0  0  0  0  0
   -2.4819  -17.2843   14.3146 H   0  0  0  0  0  0  0  0  0  0  0  0
   -2.3516  -15.7613   13.5465 H   0  0  0  0  0  0  0  0  0  0  0  0
  1  2  1  0
  2  3  1  0
  3  4  1  0
  4  5  2  0
  5  6  1  0
  6  7  2  0
  7  8  1  0
  8  9  1  0
  9 10  1  0
 10 11  2  0
 10 12  1  0
 12 13  1  0
 13 14  1  0
 12 15  1  0
 15 16  1  0
 16 17  1  0
 17 18  1  0
 18 19  1  0
 19 20  1  0
  7  3  1  0
 20 15  1  0
  1 21  1  0
  1 22  1  0
  1 23  1  0
  2 24  1  0
  2 25  1  0
  4 26  1  0
  5 27  1  0
  8 28  1  0
  8 29  1  0
  9 30  1  0
 12 31  1  0
 14 32  1  0
 14 33  1  0
 14 34  1  0
 15 35  1  0
 16 36  1  0
 16 37  1  0
 17 38  1  0
 17 39  1  0
 18 40  1  0
 19 41  1  0
 19 42  1  0
 20 43  1  0
 20 44  1  0
M  END
>  <Energy>  (1264) 
313.95149908228518

>  <compound_id>  (1264) 
17763

>  <target_id>  (1264) 
1

>  <reference_id>  (1264) 
9

>  <inspiration_ids>  (1264) 
[63, 9]

>  <energy_score>  (1264) 
245.36458747936297

>  <distance_score>  (1264) 
13.178679124485969

>  <path>  (1264) 
/opt/xchem-fragalysis-2/maxwin/BulkDock/SCRATCH/511014/C17763-P9/C17763-P9.minimised.mol

>  <scratch_subdir>  (1264) 
/opt/xchem-fragalysis-2/maxwin/BulkDock/SCRATCH/511014/C17763-P9

>  <fragmenstein_runtime>  (1264) 
27.220733642578125

>  <fragmenstein_outcome>  (1264) 
too moved

>  <fragmenstein_mode>  (1264) 
expansion

>  <fragmenstein_error>  (1264) 


$$$$
C17765-P63
     RDKit          3D

 37 38  0  0  0  0  0  0  0  0999 V2000
    2.5495   -9.0808    9.4429 C   0  0  0  0  0  0  0  0  0  0  0  0
    3.0416  -10.4789    9.3820 C   0  0  0  0  0  0  0  0  0  0  0  0
    4.3779  -10.7261    9.1663 N   0  0  0  0  0  0  0  0  0  0  0  0
    4.5847  -12.0522    9.3678 C   0  0  0  0  0  0  0  0  0  0  0  0
    3.4520  -12.6862    9.5690 N   0  0  0  0  0  0  0  0  0  0  0  0
    2.4448  -11.7397    9.5164 C   0  0  0  0  0  0  0  0  0  0  0  0
    0.9826  -12.1170    9.7634 C   0  0  0  0  0  0  0  0  0  0  0  0
    0.3486  -13.3785    9.1681 C   0  0  0  0  0  0  0  0  0  0  0  0
    0.3504  -13.4136    7.5506 O   0  0  0  0  0  0  0  0  0  0  0  0
   -0.2157  -14.2768    9.4208 N   0  0  0  0  0  0  0  0  0  0  0  0
   -1.0715  -15.4879    8.7803 C   0  0  0  0  0  0  0  0  0  0  0  0
   -2.2126  -16.2779    9.6119 C   0  0  0  0  0  0  0  0  0  0  0  0
   -3.6629  -16.0120    9.1542 C   0  0  0  0  0  0  0  0  0  0  0  0
   -4.6697  -16.7547   10.0606 C   0  0  0  0  0  0  0  0  0  0  0  0
   -4.4834  -18.1972   10.1280 N   0  0  0  0  0  0  0  0  0  0  0  0
   -3.2854  -18.6790    9.4560 C   0  0  0  0  0  0  0  0  0  0  0  0
   -2.0081  -17.8255    9.6405 C   0  0  0  0  0  0  0  0  0  0  0  0
    2.3951   -8.6961    8.4296 H   0  0  0  0  0  0  0  0  0  0  0  0
    3.2505   -8.4156    9.9534 H   0  0  0  0  0  0  0  0  0  0  0  0
    1.5926   -9.0342    9.9658 H   0  0  0  0  0  0  0  0  0  0  0  0
    5.0955  -10.0336    9.0056 H   0  0  0  0  0  0  0  0  0  0  0  0
    5.5665  -12.5044    9.3439 H   0  0  0  0  0  0  0  0  0  0  0  0
    0.8252  -12.1632   10.8460 H   0  0  0  0  0  0  0  0  0  0  0  0
    0.3609  -11.2862    9.4061 H   0  0  0  0  0  0  0  0  0  0  0  0
   -0.6794  -14.8963   10.0322 H   0  0  0  0  0  0  0  0  0  0  0  0
   -0.2972  -16.1935    8.4514 H   0  0  0  0  0  0  0  0  0  0  0  0
   -1.5227  -15.0664    7.8737 H   0  0  0  0  0  0  0  0  0  0  0  0
   -2.1549  -15.9092   10.6356 H   0  0  0  0  0  0  0  0  0  0  0  0
   -3.7934  -16.3199    8.1090 H   0  0  0  0  0  0  0  0  0  0  0  0
   -3.8740  -14.9383    9.1889 H   0  0  0  0  0  0  0  0  0  0  0  0
   -5.6870  -16.5483    9.7106 H   0  0  0  0  0  0  0  0  0  0  0  0
   -4.5980  -16.3412   11.0740 H   0  0  0  0  0  0  0  0  0  0  0  0
   -4.5287  -18.5445   11.0884 H   0  0  0  0  0  0  0  0  0  0  0  0
   -3.0809  -19.7087    9.7716 H   0  0  0  0  0  0  0  0  0  0  0  0
   -3.5043  -18.7418    8.3822 H   0  0  0  0  0  0  0  0  0  0  0  0
   -1.3058  -18.1202    8.8512 H   0  0  0  0  0  0  0  0  0  0  0  0
   -1.5193  -18.1012   10.5812 H   0  0  0  0  0  0  0  0  0  0  0  0
  1  2  1  0
  2  3  1  0
  3  4  1  0
  4  5  2  0
  5  6  1  0
  6  7  1  0
  7  8  1  0
  8  9  2  0
  8 10  1  0
 10 11  1  0
 11 12  1  0
 12 13  1  0
 13 14  1  0
 14 15  1  0
 15 16  1  0
 16 17  1  0
  6  2  2  0
 17 12  1  0
  1 18  1  0
  1 19  1  0
  1 20  1  0
  3 21  1  0
  4 22  1  0
  7 23  1  0
  7 24  1  0
 10 25  1  0
 11 26  1  0
 11 27  1  0
 12 28  1  0
 13 29  1  0
 13 30  1  0
 14 31  1  0
 14 32  1  0
 15 33  1  0
 16 34  1  0
 16 35  1  0
 17 36  1  0
 17 37  1  0
M  END
>  <Energy>  (1265) 
236.13570919585538

>  <compound_id>  (1265) 
17765

>  <target_id>  (1265) 
1

>  <reference_id>  (1265) 
63

>  <inspiration_ids>  (1265) 
[63, 9]

>  <energy_score>  (1265) 
194.28289920998816

>  <distance_score>  (1265) 
13.682498740645197

>  <path>  (1265) 
/opt/xchem-fragalysis-2/maxwin/BulkDock/SCRATCH/511014/C17765-P63/C17765-P63.minimised.mol

>  <scratch_subdir>  (1265) 
/opt/xchem-fragalysis-2/maxwin/BulkDock/SCRATCH/511014/C17765-P63

>  <fragmenstein_runtime>  (1265) 
19.072949409484863

>  <fragmenstein_outcome>  (1265) 
too moved

>  <fragmenstein_mode>  (1265) 
expansion

>  <fragmenstein_error>  (1265) 


$$$$
C17765-P9
     RDKit          3D

 37 38  0  0  0  0  0  0  0  0999 V2000
    4.4678  -11.7829    9.4319 C   0  0  0  0  0  0  0  0  0  0  0  0
    3.1662  -11.0663    9.3963 C   0  0  0  0  0  0  0  0  0  0  0  0
    3.1778   -9.6878    9.4019 N   0  0  0  0  0  0  0  0  0  0  0  0
    1.8948   -9.2591    9.4460 C   0  0  0  0  0  0  0  0  0  0  0  0
    1.0568  -10.2694    9.4267 N   0  0  0  0  0  0  0  0  0  0  0  0
    1.8066  -11.4320    9.3632 C   0  0  0  0  0  0  0  0  0  0  0  0
    1.0881  -12.8193    9.4274 C   0  0  0  0  0  0  0  0  0  0  0  0
   -0.0967  -13.1567    8.4466 C   0  0  0  0  0  0  0  0  0  0  0  0
   -0.1643  -12.5302    7.4225 O   0  0  0  0  0  0  0  0  0  0  0  0
   -0.9149  -14.3133    8.9350 N   0  0  0  0  0  0  0  0  0  0  0  0
   -2.1057  -14.9654    8.3524 C   0  0  0  0  0  0  0  0  0  0  0  0
   -2.9073  -16.2343    8.8767 C   0  0  0  0  0  0  0  0  0  0  0  0
   -4.0334  -15.9795    9.9009 C   0  0  0  0  0  0  0  0  0  0  0  0
   -4.9292  -17.2222   10.0903 C   0  0  0  0  0  0  0  0  0  0  0  0
   -4.1854  -18.4231   10.4660 N   0  0  0  0  0  0  0  0  0  0  0  0
   -3.0699  -18.6843    9.5533 C   0  0  0  0  0  0  0  0  0  0  0  0
   -2.1253  -17.4798    9.3082 C   0  0  0  0  0  0  0  0  0  0  0  0
    5.1707  -11.3405    8.7175 H   0  0  0  0  0  0  0  0  0  0  0  0
    4.3379  -12.8319    9.1513 H   0  0  0  0  0  0  0  0  0  0  0  0
    4.9228  -11.7398   10.4232 H   0  0  0  0  0  0  0  0  0  0  0  0
    3.9953   -9.0957    9.4005 H   0  0  0  0  0  0  0  0  0  0  0  0
    1.6240   -8.2136    9.4896 H   0  0  0  0  0  0  0  0  0  0  0  0
    0.7268  -12.9454   10.4543 H   0  0  0  0  0  0  0  0  0  0  0  0
    1.8358  -13.5874    9.2020 H   0  0  0  0  0  0  0  0  0  0  0  0
   -0.6361  -14.5421    9.8823 H   0  0  0  0  0  0  0  0  0  0  0  0
   -1.7708  -15.2218    7.3378 H   0  0  0  0  0  0  0  0  0  0  0  0
   -2.8288  -14.1537    8.2029 H   0  0  0  0  0  0  0  0  0  0  0  0
   -3.4505  -16.5427    7.9675 H   0  0  0  0  0  0  0  0  0  0  0  0
   -3.6025  -15.6834   10.8613 H   0  0  0  0  0  0  0  0  0  0  0  0
   -4.6602  -15.1472    9.5597 H   0  0  0  0  0  0  0  0  0  0  0  0
   -5.6789  -17.0126   10.8614 H   0  0  0  0  0  0  0  0  0  0  0  0
   -5.4834  -17.4184    9.1643 H   0  0  0  0  0  0  0  0  0  0  0  0
   -3.8431  -18.3328   11.4194 H   0  0  0  0  0  0  0  0  0  0  0  0
   -2.4829  -19.5227    9.9447 H   0  0  0  0  0  0  0  0  0  0  0  0
   -3.4769  -19.0192    8.5910 H   0  0  0  0  0  0  0  0  0  0  0  0
   -1.5410  -17.2638   10.2070 H   0  0  0  0  0  0  0  0  0  0  0  0
   -1.4065  -17.7504    8.5256 H   0  0  0  0  0  0  0  0  0  0  0  0
  1  2  1  0
  2  3  1  0
  3  4  1  0
  4  5  2  0
  5  6  1  0
  6  7  1  0
  7  8  1  0
  8  9  2  0
  8 10  1  0
 10 11  1  0
 11 12  1  0
 12 13  1  0
 13 14  1  0
 14 15  1  0
 15 16  1  0
 16 17  1  0
  6  2  2  0
 17 12  1  0
  1 18  1  0
  1 19  1  0
  1 20  1  0
  3 21  1  0
  4 22  1  0
  7 23  1  0
  7 24  1  0
 10 25  1  0
 11 26  1  0
 11 27  1  0
 12 28  1  0
 13 29  1  0
 13 30  1  0
 14 31  1  0
 14 32  1  0
 15 33  1  0
 16 34  1  0
 16 35  1  0
 17 36  1  0
 17 37  1  0
M  END
>  <Energy>  (1266) 
38.306244614480399

>  <compound_id>  (1266) 
17765

>  <target_id>  (1266) 
1

>  <reference_id>  (1266) 
9

>  <inspiration_ids>  (1266) 
[63, 9]

>  <energy_score>  (1266) 
-3.5465653713908125

>  <distance_score>  (1266) 
13.70522013864239

>  <path>  (1266) 
/opt/xchem-fragalysis-2/maxwin/BulkDock/SCRATCH/511014/C17765-P9/C17765-P9.minimised.mol

>  <scratch_subdir>  (1266) 
/opt/xchem-fragalysis-2/maxwin/BulkDock/SCRATCH/511014/C17765-P9

>  <fragmenstein_runtime>  (1266) 
11.66388463973999

>  <fragmenstein_outcome>  (1266) 
too moved

>  <fragmenstein_mode>  (1266) 
expansion

>  <fragmenstein_error>  (1266) 


$$$$
C17768-P63
     RDKit          3D

 50 51  0  0  0  0  0  0  0  0999 V2000
    8.0035  -12.4425   13.7904 C   0  0  0  0  0  0  0  0  0  0  0  0
    7.9788  -13.9166   13.9333 C   0  0  0  0  0  0  0  0  0  0  0  0
    6.9811  -14.7336   13.6406 N   0  0  0  0  0  0  0  0  0  0  0  0
    7.4032  -16.0369   13.9073 C   0  0  0  0  0  0  0  0  0  0  0  0
    6.5111  -17.2452   13.5320 C   0  0  0  0  0  0  0  0  0  0  0  0
    6.3674  -18.4240   14.5607 C   0  0  0  0  0  0  0  0  0  0  0  0
    7.1514  -18.4789   15.4696 O   0  0  0  0  0  0  0  0  0  0  0  0
    5.2603  -19.3239   14.1964 N   0  0  0  0  0  0  0  0  0  0  0  0
    4.8254  -20.6420   14.7844 C   0  0  0  0  0  0  0  0  0  0  0  0
    5.7170  -21.7472   14.2181 C   0  0  0  0  0  0  0  0  0  0  0  0
    3.3101  -21.0111   14.6023 C   0  0  0  0  0  0  0  0  0  0  0  0
    2.7090  -21.9854   15.5554 N   0  0  0  0  0  0  0  0  0  0  0  0
    2.5661  -23.4416   15.4777 C   0  0  0  0  0  0  0  0  0  0  0  0
    2.9704  -24.2254   14.6606 O   0  0  0  0  0  0  0  0  0  0  0  0
    1.6511  -24.0218   16.6731 C   0  0  0  0  0  0  0  0  0  0  0  0
    0.2898  -24.5574   16.2633 N   0  0  0  0  0  0  0  0  0  0  0  0
   -0.5593  -24.9247   17.4057 C   0  0  0  0  0  0  0  0  0  0  0  0
   -2.0258  -25.1614   16.9856 C   0  0  0  0  0  0  0  0  0  0  0  0
   -2.1727  -25.8182   15.6160 C   0  0  0  0  0  0  0  0  0  0  0  0
   -0.9051  -26.5715   15.2450 C   0  0  0  0  0  0  0  0  0  0  0  0
    0.3748  -25.7053   15.3336 C   0  0  0  0  0  0  0  0  0  0  0  0
    8.6878  -15.9599   14.4116 C   0  0  0  0  0  0  0  0  0  0  0  0
    9.0339  -14.6294   14.4347 N   0  0  0  0  0  0  0  0  0  0  0  0
    8.1355  -11.9635   14.7654 H   0  0  0  0  0  0  0  0  0  0  0  0
    8.8222  -12.1316   13.1342 H   0  0  0  0  0  0  0  0  0  0  0  0
    7.0643  -12.0831   13.3585 H   0  0  0  0  0  0  0  0  0  0  0  0
    5.5100  -16.8688   13.3018 H   0  0  0  0  0  0  0  0  0  0  0  0
    6.9214  -17.6779   12.6111 H   0  0  0  0  0  0  0  0  0  0  0  0
    4.8560  -19.0149   13.3153 H   0  0  0  0  0  0  0  0  0  0  0  0
    5.0370  -20.5845   15.8529 H   0  0  0  0  0  0  0  0  0  0  0  0
    5.4923  -22.7130   14.6808 H   0  0  0  0  0  0  0  0  0  0  0  0
    5.5830  -21.8440   13.1352 H   0  0  0  0  0  0  0  0  0  0  0  0
    6.7744  -21.5264   14.4004 H   0  0  0  0  0  0  0  0  0  0  0  0
    2.7109  -20.1003   14.7086 H   0  0  0  0  0  0  0  0  0  0  0  0
    3.1454  -21.4015   13.5925 H   0  0  0  0  0  0  0  0  0  0  0  0
    2.1677  -21.6404   16.3390 H   0  0  0  0  0  0  0  0  0  0  0  0
    1.5000  -23.2222   17.4054 H   0  0  0  0  0  0  0  0  0  0  0  0
    2.2319  -24.8081   17.1708 H   0  0  0  0  0  0  0  0  0  0  0  0
   -0.5460  -24.1377   18.1661 H   0  0  0  0  0  0  0  0  0  0  0  0
   -0.1631  -25.8246   17.8953 H   0  0  0  0  0  0  0  0  0  0  0  0
   -2.5778  -24.2168   16.9849 H   0  0  0  0  0  0  0  0  0  0  0  0
   -2.5018  -25.7923   17.7463 H   0  0  0  0  0  0  0  0  0  0  0  0
   -3.0343  -26.4952   15.6133 H   0  0  0  0  0  0  0  0  0  0  0  0
   -2.3790  -25.0542   14.8603 H   0  0  0  0  0  0  0  0  0  0  0  0
   -0.7973  -27.4263   15.9258 H   0  0  0  0  0  0  0  0  0  0  0  0
   -0.9970  -26.9865   14.2348 H   0  0  0  0  0  0  0  0  0  0  0  0
    1.2015  -26.3692   15.6184 H   0  0  0  0  0  0  0  0  0  0  0  0
    0.6076  -25.3333   14.3302 H   0  0  0  0  0  0  0  0  0  0  0  0
    9.3781  -16.7280   14.7327 H   0  0  0  0  0  0  0  0  0  0  0  0
    9.9189  -14.2480   14.7409 H   0  0  0  0  0  0  0  0  0  0  0  0
  1  2  1  0
  2  3  2  0
  3  4  1  0
  4  5  1  0
  5  6  1  0
  6  7  2  0
  6  8  1  0
  8  9  1  0
  9 10  1  0
  9 11  1  0
 11 12  1  0
 12 13  1  0
 13 14  2  0
 13 15  1  0
 15 16  1  0
 16 17  1  0
 17 18  1  0
 18 19  1  0
 19 20  1  0
 20 21  1  0
  4 22  2  0
 22 23  1  0
 23  2  1  0
 21 16  1  0
  1 24  1  0
  1 25  1  0
  1 26  1  0
  5 27  1  0
  5 28  1  0
  8 29  1  0
  9 30  1  0
 10 31  1  0
 10 32  1  0
 10 33  1  0
 11 34  1  0
 11 35  1  0
 12 36  1  0
 15 37  1  0
 15 38  1  0
 17 39  1  0
 17 40  1  0
 18 41  1  0
 18 42  1  0
 19 43  1  0
 19 44  1  0
 20 45  1  0
 20 46  1  0
 21 47  1  0
 21 48  1  0
 22 49  1  0
 23 50  1  0
M  END
>  <Energy>  (1267) 
76.503196973884741

>  <compound_id>  (1267) 
17768

>  <target_id>  (1267) 
1

>  <reference_id>  (1267) 
63

>  <inspiration_ids>  (1267) 
[63, 9]

>  <energy_score>  (1267) 
-20.218411766672602

>  <distance_score>  (1267) 
13.842363855040894

>  <path>  (1267) 
/opt/xchem-fragalysis-2/maxwin/BulkDock/SCRATCH/511014/C17768-P63/C17768-P63.minimised.mol

>  <scratch_subdir>  (1267) 
/opt/xchem-fragalysis-2/maxwin/BulkDock/SCRATCH/511014/C17768-P63

>  <fragmenstein_runtime>  (1267) 
46.250102281570435

>  <fragmenstein_outcome>  (1267) 
too moved

>  <fragmenstein_mode>  (1267) 
expansion

>  <fragmenstein_error>  (1267) 


$$$$
C17768-P9
     RDKit          3D

 50 51  0  0  0  0  0  0  0  0999 V2000
    9.1433  -13.0766   16.6947 C   0  0  0  0  0  0  0  0  0  0  0  0
    8.6312  -14.2258   15.9130 C   0  0  0  0  0  0  0  0  0  0  0  0
    8.1177  -15.3486   16.3852 N   0  0  0  0  0  0  0  0  0  0  0  0
    7.7285  -16.1244   15.2950 C   0  0  0  0  0  0  0  0  0  0  0  0
    7.1750  -17.5621   15.4533 C   0  0  0  0  0  0  0  0  0  0  0  0
    5.6171  -17.7728   15.5442 C   0  0  0  0  0  0  0  0  0  0  0  0
    4.9178  -16.8101   15.6794 O   0  0  0  0  0  0  0  0  0  0  0  0
    5.2713  -19.2043   15.4504 N   0  0  0  0  0  0  0  0  0  0  0  0
    3.9237  -19.8981   15.3942 C   0  0  0  0  0  0  0  0  0  0  0  0
    3.7812  -20.5581   14.0261 C   0  0  0  0  0  0  0  0  0  0  0  0
    3.6440  -20.9128   16.5769 C   0  0  0  0  0  0  0  0  0  0  0  0
    2.8935  -22.1772   16.3672 N   0  0  0  0  0  0  0  0  0  0  0  0
    1.8352  -22.8154   17.1705 C   0  0  0  0  0  0  0  0  0  0  0  0
    1.2597  -22.4306   18.1534 O   0  0  0  0  0  0  0  0  0  0  0  0
    1.5239  -24.2993   16.6565 C   0  0  0  0  0  0  0  0  0  0  0  0
    0.0744  -24.7013   16.5124 N   0  0  0  0  0  0  0  0  0  0  0  0
   -0.6991  -24.6829   17.7636 C   0  0  0  0  0  0  0  0  0  0  0  0
   -2.0414  -25.4493   17.7053 C   0  0  0  0  0  0  0  0  0  0  0  0
   -2.5460  -25.6474   16.2860 C   0  0  0  0  0  0  0  0  0  0  0  0
   -1.4913  -26.3252   15.4232 C   0  0  0  0  0  0  0  0  0  0  0  0
   -0.0526  -26.0250   15.8772 C   0  0  0  0  0  0  0  0  0  0  0  0
    8.0740  -15.4344   14.1408 C   0  0  0  0  0  0  0  0  0  0  0  0
    8.6247  -14.2393   14.5419 N   0  0  0  0  0  0  0  0  0  0  0  0
   10.1971  -12.8925   16.4646 H   0  0  0  0  0  0  0  0  0  0  0  0
    9.0572  -13.2724   17.7678 H   0  0  0  0  0  0  0  0  0  0  0  0
    8.5725  -12.1710   16.4666 H   0  0  0  0  0  0  0  0  0  0  0  0
    7.6090  -17.9877   16.3663 H   0  0  0  0  0  0  0  0  0  0  0  0
    7.5415  -18.1500   14.6025 H   0  0  0  0  0  0  0  0  0  0  0  0
    6.1091  -19.7359   15.2560 H   0  0  0  0  0  0  0  0  0  0  0  0
    3.1766  -19.0982   15.4627 H   0  0  0  0  0  0  0  0  0  0  0  0
    3.9553  -19.8309   13.2252 H   0  0  0  0  0  0  0  0  0  0  0  0
    2.7764  -20.9699   13.8879 H   0  0  0  0  0  0  0  0  0  0  0  0
    4.5094  -21.3667   13.9011 H   0  0  0  0  0  0  0  0  0  0  0  0
    4.6113  -21.2490   16.9637 H   0  0  0  0  0  0  0  0  0  0  0  0
    3.1412  -20.3781   17.3886 H   0  0  0  0  0  0  0  0  0  0  0  0
    3.2042  -22.8243   15.6545 H   0  0  0  0  0  0  0  0  0  0  0  0
    2.0316  -24.9821   17.3495 H   0  0  0  0  0  0  0  0  0  0  0  0
    2.0007  -24.4214   15.6773 H   0  0  0  0  0  0  0  0  0  0  0  0
   -0.9124  -23.6481   18.0224 H   0  0  0  0  0  0  0  0  0  0  0  0
   -0.1087  -25.0978   18.5908 H   0  0  0  0  0  0  0  0  0  0  0  0
   -1.9040  -26.4352   18.1683 H   0  0  0  0  0  0  0  0  0  0  0  0
   -2.7927  -24.9213   18.3034 H   0  0  0  0  0  0  0  0  0  0  0  0
   -3.4592  -26.2500   16.2827 H   0  0  0  0  0  0  0  0  0  0  0  0
   -2.7889  -24.6721   15.8531 H   0  0  0  0  0  0  0  0  0  0  0  0
   -1.6400  -27.4118   15.4468 H   0  0  0  0  0  0  0  0  0  0  0  0
   -1.6350  -26.0193   14.3802 H   0  0  0  0  0  0  0  0  0  0  0  0
    0.5919  -26.0896   14.9917 H   0  0  0  0  0  0  0  0  0  0  0  0
    0.2909  -26.8074   16.5673 H   0  0  0  0  0  0  0  0  0  0  0  0
    7.9842  -15.6919   13.0943 H   0  0  0  0  0  0  0  0  0  0  0  0
    8.9670  -13.5020   13.9403 H   0  0  0  0  0  0  0  0  0  0  0  0
  1  2  1  0
  2  3  2  0
  3  4  1  0
  4  5  1  0
  5  6  1  0
  6  7  2  0
  6  8  1  0
  8  9  1  0
  9 10  1  0
  9 11  1  0
 11 12  1  0
 12 13  1  0
 13 14  2  0
 13 15  1  0
 15 16  1  0
 16 17  1  0
 17 18  1  0
 18 19  1  0
 19 20  1  0
 20 21  1  0
  4 22  2  0
 22 23  1  0
 23  2  1  0
 21 16  1  0
  1 24  1  0
  1 25  1  0
  1 26  1  0
  5 27  1  0
  5 28  1  0
  8 29  1  0
  9 30  1  0
 10 31  1  0
 10 32  1  0
 10 33  1  0
 11 34  1  0
 11 35  1  0
 12 36  1  0
 15 37  1  0
 15 38  1  0
 17 39  1  0
 17 40  1  0
 18 41  1  0
 18 42  1  0
 19 43  1  0
 19 44  1  0
 20 45  1  0
 20 46  1  0
 21 47  1  0
 21 48  1  0
 22 49  1  0
 23 50  1  0
M  END
>  <Energy>  (1268) 
88.00334721212424

>  <compound_id>  (1268) 
17768

>  <target_id>  (1268) 
1

>  <reference_id>  (1268) 
9

>  <inspiration_ids>  (1268) 
[63, 9]

>  <energy_score>  (1268) 
-8.718261528434937

>  <distance_score>  (1268) 
13.686580729144527

>  <path>  (1268) 
/opt/xchem-fragalysis-2/maxwin/BulkDock/SCRATCH/511014/C17768-P9/C17768-P9.minimised.mol

>  <scratch_subdir>  (1268) 
/opt/xchem-fragalysis-2/maxwin/BulkDock/SCRATCH/511014/C17768-P9

>  <fragmenstein_runtime>  (1268) 
49.88736963272095

>  <fragmenstein_outcome>  (1268) 
too moved

>  <fragmenstein_mode>  (1268) 
expansion

>  <fragmenstein_error>  (1268) 


$$$$
C17769-P63
     RDKit          3D

 44 45  0  0  0  0  0  0  0  0999 V2000
   -4.7294  -22.0004   18.1722 C   0  0  0  0  0  0  0  0  0  0  0  0
   -5.3042  -20.7401   17.5246 C   0  0  0  0  0  0  0  0  0  0  0  0
   -4.7938  -19.3296   18.6843 C   0  0  0  0  0  0  0  0  0  0  0  0
   -5.6737  -19.0632   19.4889 O   0  0  0  0  0  0  0  0  0  0  0  0
   -3.2154  -18.6645   18.6194 N   0  0  0  0  0  0  0  0  0  0  0  0
   -2.2745  -19.4913   19.4277 C   0  0  0  0  0  0  0  0  0  0  0  0
   -2.7358  -20.0584   20.8029 C   0  0  0  0  0  0  0  0  0  0  0  0
   -3.6134  -19.2307   21.5511 O   0  0  0  0  0  0  0  0  0  0  0  0
   -2.4438  -17.3068   19.6084 C   0  0  0  0  0  0  0  0  0  0  0  0
   -1.0634  -16.0005   19.6043 C   0  0  0  0  0  0  0  0  0  0  0  0
   -1.0167  -14.8324   18.6955 N   0  0  0  0  0  0  0  0  0  0  0  0
    0.6953  -14.1495   18.0053 C   0  0  0  0  0  0  0  0  0  0  0  0
    1.8232  -15.1743   18.5682 C   0  0  0  0  0  0  0  0  0  0  0  0
    0.7252  -16.2066   19.6706 N   0  0  0  0  0  0  0  0  0  0  0  0
   -6.9382  -21.3058   16.9207 N   0  0  0  0  0  0  0  0  0  0  0  0
   -8.2625  -20.7802   17.5552 C   0  0  0  0  0  0  0  0  0  0  0  0
   -9.5293  -21.3022   16.2043 C   0  0  0  0  0  0  0  0  0  0  0  0
   -9.5975  -21.8354   14.5724 C   0  0  0  0  0  0  0  0  0  0  0  0
   -8.2784  -22.2294   14.0439 C   0  0  0  0  0  0  0  0  0  0  0  0
   -7.6930  -22.4795   15.4031 C   0  0  0  0  0  0  0  0  0  0  0  0
   -4.1742  -22.5903   17.4415 H   0  0  0  0  0  0  0  0  0  0  0  0
   -4.0168  -21.7607   18.9553 H   0  0  0  0  0  0  0  0  0  0  0  0
   -5.4987  -22.6174   18.6395 H   0  0  0  0  0  0  0  0  0  0  0  0
   -4.7236  -20.4652   16.6503 H   0  0  0  0  0  0  0  0  0  0  0  0
   -2.1244  -20.3814   18.7997 H   0  0  0  0  0  0  0  0  0  0  0  0
   -1.2522  -19.0854   19.4647 H   0  0  0  0  0  0  0  0  0  0  0  0
   -3.2260  -21.0271   20.6891 H   0  0  0  0  0  0  0  0  0  0  0  0
   -1.8474  -20.2436   21.4165 H   0  0  0  0  0  0  0  0  0  0  0  0
   -4.4697  -19.1865   21.0753 H   0  0  0  0  0  0  0  0  0  0  0  0
   -2.7461  -17.4522   20.6331 H   0  0  0  0  0  0  0  0  0  0  0  0
   -3.1683  -16.6031   19.2317 H   0  0  0  0  0  0  0  0  0  0  0  0
    0.6449  -13.6667   17.0741 H   0  0  0  0  0  0  0  0  0  0  0  0
    2.7665  -15.5589   18.1692 H   0  0  0  0  0  0  0  0  0  0  0  0
    1.0226  -16.2895   20.6313 H   0  0  0  0  0  0  0  0  0  0  0  0
   -8.2166  -19.7094   17.8065 H   0  0  0  0  0  0  0  0  0  0  0  0
   -8.5577  -21.1542   18.5314 H   0  0  0  0  0  0  0  0  0  0  0  0
   -9.7241  -22.2611   16.5175 H   0  0  0  0  0  0  0  0  0  0  0  0
   -9.9196  -20.3680   15.9060 H   0  0  0  0  0  0  0  0  0  0  0  0
  -10.1572  -22.7794   14.5195 H   0  0  0  0  0  0  0  0  0  0  0  0
  -10.1884  -21.1912   13.9056 H   0  0  0  0  0  0  0  0  0  0  0  0
   -7.5433  -21.7183   13.4087 H   0  0  0  0  0  0  0  0  0  0  0  0
   -8.6565  -22.9901   13.3400 H   0  0  0  0  0  0  0  0  0  0  0  0
   -7.1241  -23.3251   15.6065 H   0  0  0  0  0  0  0  0  0  0  0  0
   -8.5256  -23.2140   15.6022 H   0  0  0  0  0  0  0  0  0  0  0  0
  1  2  1  0
  2  3  1  0
  3  4  2  0
  3  5  1  0
  5  6  1  0
  6  7  1  0
  7  8  1  0
  5  9  1  0
  9 10  1  0
 10 11  2  0
 11 12  1  0
 12 13  2  0
 13 14  1  0
  2 15  1  0
 15 16  1  0
 16 17  1  0
 17 18  1  0
 18 19  1  0
 19 20  1  0
 14 10  1  0
 20 15  1  0
  1 21  1  0
  1 22  1  0
  1 23  1  0
  2 24  1  0
  6 25  1  0
  6 26  1  0
  7 27  1  0
  7 28  1  0
  8 29  1  0
  9 30  1  0
  9 31  1  0
 12 32  1  0
 13 33  1  0
 14 34  1  0
 16 35  1  0
 16 36  1  0
 17 37  1  0
 17 38  1  0
 18 39  1  0
 18 40  1  0
 19 41  1  0
 19 42  1  0
 20 43  1  0
 20 44  1  0
M  END
>  <Energy>  (1269) 
906.83237393586023

>  <compound_id>  (1269) 
17769

>  <target_id>  (1269) 
1

>  <reference_id>  (1269) 
63

>  <inspiration_ids>  (1269) 
[63, 9]

>  <energy_score>  (1269) 
806.5619060415754

>  <distance_score>  (1269) 
12.500076292436166

>  <path>  (1269) 
/opt/xchem-fragalysis-2/maxwin/BulkDock/SCRATCH/511014/C17769-P63/C17769-P63.minimised.mol

>  <scratch_subdir>  (1269) 
/opt/xchem-fragalysis-2/maxwin/BulkDock/SCRATCH/511014/C17769-P63

>  <fragmenstein_runtime>  (1269) 
22.370784521102905

>  <fragmenstein_outcome>  (1269) 
too moved

>  <fragmenstein_mode>  (1269) 
expansion

>  <fragmenstein_error>  (1269) 


$$$$
C17769-P9
     RDKit          3D

 44 45  0  0  0  0  0  0  0  0999 V2000
   -0.8878  -20.4935   16.8632 C   0  0  0  0  0  0  0  0  0  0  0  0
    0.4148  -20.8055   16.1090 C   0  0  0  0  0  0  0  0  0  0  0  0
    1.7091  -20.5818   17.0809 C   0  0  0  0  0  0  0  0  0  0  0  0
    1.7879  -21.2920   18.0565 O   0  0  0  0  0  0  0  0  0  0  0  0
    2.5762  -19.4813   16.6315 N   0  0  0  0  0  0  0  0  0  0  0  0
    3.6729  -20.0217   15.7072 C   0  0  0  0  0  0  0  0  0  0  0  0
    3.4663  -19.5183   14.2671 C   0  0  0  0  0  0  0  0  0  0  0  0
    4.3228  -20.2298   13.3735 O   0  0  0  0  0  0  0  0  0  0  0  0
    3.7908  -18.8103   17.3199 C   0  0  0  0  0  0  0  0  0  0  0  0
    4.5754  -17.5380   16.8431 C   0  0  0  0  0  0  0  0  0  0  0  0
    5.2986  -17.3550   15.7453 N   0  0  0  0  0  0  0  0  0  0  0  0
    6.1674  -16.3157   15.9915 C   0  0  0  0  0  0  0  0  0  0  0  0
    5.9346  -15.7830   17.2315 C   0  0  0  0  0  0  0  0  0  0  0  0
    4.8903  -16.5183   17.7385 N   0  0  0  0  0  0  0  0  0  0  0  0
    0.3607  -22.1899   15.5377 N   0  0  0  0  0  0  0  0  0  0  0  0
   -0.2600  -22.2852   14.2031 C   0  0  0  0  0  0  0  0  0  0  0  0
   -1.7184  -22.7449   14.1345 C   0  0  0  0  0  0  0  0  0  0  0  0
   -1.9187  -24.0142   14.9398 C   0  0  0  0  0  0  0  0  0  0  0  0
   -1.4963  -23.7562   16.3737 C   0  0  0  0  0  0  0  0  0  0  0  0
   -0.0340  -23.2894   16.4343 C   0  0  0  0  0  0  0  0  0  0  0  0
   -1.7748  -20.7409   16.2811 H   0  0  0  0  0  0  0  0  0  0  0  0
   -0.9412  -21.0086   17.8273 H   0  0  0  0  0  0  0  0  0  0  0  0
   -0.9306  -19.4231   17.0619 H   0  0  0  0  0  0  0  0  0  0  0  0
    0.5274  -20.0920   15.2860 H   0  0  0  0  0  0  0  0  0  0  0  0
    3.4977  -21.1094   15.6548 H   0  0  0  0  0  0  0  0  0  0  0  0
    4.7496  -20.0128   15.9535 H   0  0  0  0  0  0  0  0  0  0  0  0
    2.4336  -19.6756   13.9415 H   0  0  0  0  0  0  0  0  0  0  0  0
    3.6971  -18.4564   14.1871 H   0  0  0  0  0  0  0  0  0  0  0  0
    4.1866  -19.8137   12.5040 H   0  0  0  0  0  0  0  0  0  0  0  0
    3.2698  -18.4275   18.2154 H   0  0  0  0  0  0  0  0  0  0  0  0
    4.4601  -19.5455   17.8037 H   0  0  0  0  0  0  0  0  0  0  0  0
    6.9104  -16.0239   15.2605 H   0  0  0  0  0  0  0  0  0  0  0  0
    6.3975  -14.9847   17.7933 H   0  0  0  0  0  0  0  0  0  0  0  0
    4.5237  -16.4335   18.6836 H   0  0  0  0  0  0  0  0  0  0  0  0
    0.3393  -23.0118   13.6378 H   0  0  0  0  0  0  0  0  0  0  0  0
   -0.1504  -21.3452   13.6486 H   0  0  0  0  0  0  0  0  0  0  0  0
   -1.9943  -22.9222   13.0890 H   0  0  0  0  0  0  0  0  0  0  0  0
   -2.3725  -21.9553   14.5115 H   0  0  0  0  0  0  0  0  0  0  0  0
   -2.9553  -24.3353   14.9076 H   0  0  0  0  0  0  0  0  0  0  0  0
   -1.3214  -24.8289   14.5124 H   0  0  0  0  0  0  0  0  0  0  0  0
   -1.6058  -24.6768   16.9587 H   0  0  0  0  0  0  0  0  0  0  0  0
   -2.1567  -23.0121   16.8319 H   0  0  0  0  0  0  0  0  0  0  0  0
    0.2287  -23.0799   17.4757 H   0  0  0  0  0  0  0  0  0  0  0  0
    0.5927  -24.1486   16.1591 H   0  0  0  0  0  0  0  0  0  0  0  0
  1  2  1  0
  2  3  1  0
  3  4  2  0
  3  5  1  0
  5  6  1  0
  6  7  1  0
  7  8  1  0
  5  9  1  0
  9 10  1  0
 10 11  2  0
 11 12  1  0
 12 13  2  0
 13 14  1  0
  2 15  1  0
 15 16  1  0
 16 17  1  0
 17 18  1  0
 18 19  1  0
 19 20  1  0
 14 10  1  0
 20 15  1  0
  1 21  1  0
  1 22  1  0
  1 23  1  0
  2 24  1  0
  6 25  1  0
  6 26  1  0
  7 27  1  0
  7 28  1  0
  8 29  1  0
  9 30  1  0
  9 31  1  0
 12 32  1  0
 13 33  1  0
 14 34  1  0
 16 35  1  0
 16 36  1  0
 17 37  1  0
 17 38  1  0
 18 39  1  0
 18 40  1  0
 19 41  1  0
 19 42  1  0
 20 43  1  0
 20 44  1  0
M  END
>  <Energy>  (1270) 
152.8984513765181

>  <compound_id>  (1270) 
17769

>  <target_id>  (1270) 
1

>  <reference_id>  (1270) 
9

>  <inspiration_ids>  (1270) 
[63, 9]

>  <energy_score>  (1270) 
52.6279834822368

>  <distance_score>  (1270) 
14.26230034806705

>  <path>  (1270) 
/opt/xchem-fragalysis-2/maxwin/BulkDock/SCRATCH/511014/C17769-P9/C17769-P9.minimised.mol

>  <scratch_subdir>  (1270) 
/opt/xchem-fragalysis-2/maxwin/BulkDock/SCRATCH/511014/C17769-P9

>  <fragmenstein_runtime>  (1270) 
23.898921966552734

>  <fragmenstein_outcome>  (1270) 
too moved

>  <fragmenstein_mode>  (1270) 
expansion

>  <fragmenstein_error>  (1270) 


$$$$
C17770-P63
     RDKit          3D

 47 48  0  0  0  0  0  0  0  0999 V2000
   -1.6778  -18.4290   18.4831 O   0  0  0  0  0  0  0  0  0  0  0  0
   -2.1612  -17.5581   19.0829 C   0  0  0  0  0  0  0  0  0  0  0  0
   -4.1036  -17.6786   18.9387 C   0  0  0  0  0  0  0  0  0  0  0  0
   -5.4734  -18.8997   17.4316 S   0  0  0  0  0  0  0  0  0  0  0  0
   -6.7053  -20.8212   16.6486 C   0  0  0  0  0  0  0  0  0  0  0  0
   -7.1986  -21.2298   14.5118 C   0  0  0  0  0  0  0  0  0  0  0  0
   -6.5033  -20.4973   13.7554 O   0  0  0  0  0  0  0  0  0  0  0  0
   -8.2589  -22.4548   14.0030 N   0  0  0  0  0  0  0  0  0  0  0  0
   -9.7179  -22.0571   13.7532 C   0  0  0  0  0  0  0  0  0  0  0  0
  -10.6918  -23.3463   13.3899 C   0  0  0  0  0  0  0  0  0  0  0  0
  -10.7356  -23.5832   11.8936 C   0  0  0  0  0  0  0  0  0  0  0  0
   -9.5730  -22.8039   11.3801 C   0  0  0  0  0  0  0  0  0  0  0  0
   -8.5508  -23.0737   12.4747 C   0  0  0  0  0  0  0  0  0  0  0  0
   -1.1014  -16.3028   19.8263 N   0  0  0  0  0  0  0  0  0  0  0  0
    0.8605  -16.0117   19.7198 C   0  0  0  0  0  0  0  0  0  0  0  0
    1.9970  -14.9245   20.6930 C   0  0  0  0  0  0  0  0  0  0  0  0
    3.0335  -14.6099   22.0995 O   0  0  0  0  0  0  0  0  0  0  0  0
    2.1851  -14.8766   18.4465 C   0  0  0  0  0  0  0  0  0  0  0  0
    3.6982  -13.5687   18.5934 C   0  0  0  0  0  0  0  0  0  0  0  0
    4.7884  -13.0793   19.4822 C   0  0  0  0  0  0  0  0  0  0  0  0
    5.2690  -11.7924   19.1797 N   0  0  0  0  0  0  0  0  0  0  0  0
    4.4270  -11.2469   18.2918 C   0  0  0  0  0  0  0  0  0  0  0  0
    3.5531  -12.1595   17.9425 N   0  0  0  0  0  0  0  0  0  0  0  0
   -4.3010  -16.7400   18.4206 H   0  0  0  0  0  0  0  0  0  0  0  0
   -4.6860  -17.6714   19.8447 H   0  0  0  0  0  0  0  0  0  0  0  0
   -7.5609  -20.5369   17.3375 H   0  0  0  0  0  0  0  0  0  0  0  0
   -6.5083  -21.6342   17.3157 H   0  0  0  0  0  0  0  0  0  0  0  0
  -10.0015  -21.2271   13.0916 H   0  0  0  0  0  0  0  0  0  0  0  0
   -9.9320  -21.7275   14.7589 H   0  0  0  0  0  0  0  0  0  0  0  0
  -11.7460  -23.2626   13.5921 H   0  0  0  0  0  0  0  0  0  0  0  0
  -10.3347  -24.2340   13.9304 H   0  0  0  0  0  0  0  0  0  0  0  0
  -10.6340  -24.6560   11.6845 H   0  0  0  0  0  0  0  0  0  0  0  0
  -11.6722  -23.2833   11.4384 H   0  0  0  0  0  0  0  0  0  0  0  0
   -9.7431  -21.7450   11.1964 H   0  0  0  0  0  0  0  0  0  0  0  0
   -9.2689  -23.2461   10.4278 H   0  0  0  0  0  0  0  0  0  0  0  0
   -7.5918  -22.8761   12.0065 H   0  0  0  0  0  0  0  0  0  0  0  0
   -8.5755  -24.1787   12.5592 H   0  0  0  0  0  0  0  0  0  0  0  0
   -1.6818  -15.6753   20.3774 H   0  0  0  0  0  0  0  0  0  0  0  0
    0.9381  -17.0340   19.3591 H   0  0  0  0  0  0  0  0  0  0  0  0
    2.7239  -15.3327   20.1995 H   0  0  0  0  0  0  0  0  0  0  0  0
    2.3567  -14.0805   20.2530 H   0  0  0  0  0  0  0  0  0  0  0  0
    3.2244  -13.6685   21.9061 H   0  0  0  0  0  0  0  0  0  0  0  0
    1.5524  -14.2359   17.8066 H   0  0  0  0  0  0  0  0  0  0  0  0
    2.7546  -15.5773   17.8373 H   0  0  0  0  0  0  0  0  0  0  0  0
    5.3466  -13.4778   20.3135 H   0  0  0  0  0  0  0  0  0  0  0  0
    6.0371  -11.3208   19.6364 H   0  0  0  0  0  0  0  0  0  0  0  0
    4.4691  -10.2256   17.9429 H   0  0  0  0  0  0  0  0  0  0  0  0
  1  2  2  0
  2  3  1  0
  3  4  1  0
  4  5  1  0
  5  6  1  0
  6  7  2  0
  6  8  1  0
  8  9  1  0
  9 10  1  0
 10 11  1  0
 11 12  1  0
 12 13  1  0
  2 14  1  0
 14 15  1  0
 15 16  1  0
 16 17  1  0
 15 18  1  0
 18 19  1  0
 19 20  2  0
 20 21  1  0
 21 22  1  0
 22 23  2  0
 13  8  1  0
 23 19  1  0
  3 24  1  0
  3 25  1  0
  5 26  1  0
  5 27  1  0
  9 28  1  0
  9 29  1  0
 10 30  1  0
 10 31  1  0
 11 32  1  0
 11 33  1  0
 12 34  1  0
 12 35  1  0
 13 36  1  0
 13 37  1  0
 14 38  1  0
 15 39  1  0
 16 40  1  0
 16 41  1  0
 17 42  1  0
 18 43  1  0
 18 44  1  0
 20 45  1  0
 21 46  1  0
 22 47  1  0
M  END
>  <Energy>  (1271) 
1228.8776789104145

>  <compound_id>  (1271) 
17770

>  <target_id>  (1271) 
1

>  <reference_id>  (1271) 
63

>  <inspiration_ids>  (1271) 
[63, 9]

>  <energy_score>  (1271) 
1117.1800177379666

>  <distance_score>  (1271) 
10.638642266438195

>  <path>  (1271) 
/opt/xchem-fragalysis-2/maxwin/BulkDock/SCRATCH/511014/C17770-P63/C17770-P63.minimised.mol

>  <scratch_subdir>  (1271) 
/opt/xchem-fragalysis-2/maxwin/BulkDock/SCRATCH/511014/C17770-P63

>  <fragmenstein_runtime>  (1271) 
19.095306158065796

>  <fragmenstein_outcome>  (1271) 
too moved

>  <fragmenstein_mode>  (1271) 
expansion

>  <fragmenstein_error>  (1271) 


$$$$
C17770-P9
     RDKit          3D

 47 48  0  0  0  0  0  0  0  0999 V2000
   -5.1108  -17.2461   16.1983 O   0  0  0  0  0  0  0  0  0  0  0  0
   -6.0268  -16.5109   16.4536 C   0  0  0  0  0  0  0  0  0  0  0  0
   -7.3114  -17.0759   17.2491 C   0  0  0  0  0  0  0  0  0  0  0  0
   -7.1552  -18.5610   18.4658 S   0  0  0  0  0  0  0  0  0  0  0  0
   -7.6145  -20.3826   17.5872 C   0  0  0  0  0  0  0  0  0  0  0  0
   -9.0588  -20.9388   17.8732 C   0  0  0  0  0  0  0  0  0  0  0  0
   -9.1606  -21.0989   19.0424 O   0  0  0  0  0  0  0  0  0  0  0  0
  -10.3952  -21.1233   16.4568 N   0  0  0  0  0  0  0  0  0  0  0  0
  -10.2697  -22.9341   15.7156 C   0  0  0  0  0  0  0  0  0  0  0  0
  -11.1832  -23.6015   14.2295 C   0  0  0  0  0  0  0  0  0  0  0  0
  -12.9630  -23.7377   14.3274 C   0  0  0  0  0  0  0  0  0  0  0  0
  -13.8183  -22.7450   15.6850 C   0  0  0  0  0  0  0  0  0  0  0  0
  -12.7215  -21.4521   16.9285 C   0  0  0  0  0  0  0  0  0  0  0  0
   -6.2666  -15.0827   16.0657 N   0  0  0  0  0  0  0  0  0  0  0  0
   -5.4696  -14.1368   15.1326 C   0  0  0  0  0  0  0  0  0  0  0  0
   -5.5064  -14.6842   13.6831 C   0  0  0  0  0  0  0  0  0  0  0  0
   -5.4182  -16.1023   13.6016 O   0  0  0  0  0  0  0  0  0  0  0  0
   -4.0567  -13.4867   15.4997 C   0  0  0  0  0  0  0  0  0  0  0  0
   -3.6324  -12.1994   14.7428 C   0  0  0  0  0  0  0  0  0  0  0  0
   -2.9669  -12.0624   13.5327 C   0  0  0  0  0  0  0  0  0  0  0  0
   -2.6603  -10.7303   13.3924 N   0  0  0  0  0  0  0  0  0  0  0  0
   -3.1356  -10.0858   14.4983 C   0  0  0  0  0  0  0  0  0  0  0  0
   -3.6965  -10.9356   15.3384 N   0  0  0  0  0  0  0  0  0  0  0  0
   -8.1251  -17.2329   16.5394 H   0  0  0  0  0  0  0  0  0  0  0  0
   -7.6297  -16.2633   17.9130 H   0  0  0  0  0  0  0  0  0  0  0  0
   -7.2185  -20.7859   18.5293 H   0  0  0  0  0  0  0  0  0  0  0  0
   -6.7520  -20.7924   17.1188 H   0  0  0  0  0  0  0  0  0  0  0  0
   -9.3423  -23.4634   15.9085 H   0  0  0  0  0  0  0  0  0  0  0  0
   -9.6186  -22.4078   14.9645 H   0  0  0  0  0  0  0  0  0  0  0  0
  -10.7985  -24.6165   14.0735 H   0  0  0  0  0  0  0  0  0  0  0  0
  -10.9286  -22.9789   13.3618 H   0  0  0  0  0  0  0  0  0  0  0  0
  -13.3971  -23.4465   13.3633 H   0  0  0  0  0  0  0  0  0  0  0  0
  -13.2151  -24.7898   14.5205 H   0  0  0  0  0  0  0  0  0  0  0  0
  -14.3305  -23.5018   16.2994 H   0  0  0  0  0  0  0  0  0  0  0  0
  -14.4308  -22.2074   14.9498 H   0  0  0  0  0  0  0  0  0  0  0  0
  -13.3752  -20.4328   16.9885 H   0  0  0  0  0  0  0  0  0  0  0  0
  -13.0119  -21.8810   18.0412 H   0  0  0  0  0  0  0  0  0  0  0  0
   -7.1839  -14.7999   16.3864 H   0  0  0  0  0  0  0  0  0  0  0  0
   -6.1303  -13.2571   15.1183 H   0  0  0  0  0  0  0  0  0  0  0  0
   -6.4711  -14.4209   13.2343 H   0  0  0  0  0  0  0  0  0  0  0  0
   -4.7359  -14.2475   13.0450 H   0  0  0  0  0  0  0  0  0  0  0  0
   -4.7040  -16.3918   14.2086 H   0  0  0  0  0  0  0  0  0  0  0  0
   -4.0646  -13.2320   16.5587 H   0  0  0  0  0  0  0  0  0  0  0  0
   -3.2913  -14.2408   15.3446 H   0  0  0  0  0  0  0  0  0  0  0  0
   -2.6510  -12.7975   12.8033 H   0  0  0  0  0  0  0  0  0  0  0  0
   -2.1758  -10.3104   12.6109 H   0  0  0  0  0  0  0  0  0  0  0  0
   -3.0419   -9.0177   14.6415 H   0  0  0  0  0  0  0  0  0  0  0  0
  1  2  2  0
  2  3  1  0
  3  4  1  0
  4  5  1  0
  5  6  1  0
  6  7  2  0
  6  8  1  0
  8  9  1  0
  9 10  1  0
 10 11  1  0
 11 12  1  0
 12 13  1  0
  2 14  1  0
 14 15  1  0
 15 16  1  0
 16 17  1  0
 15 18  1  0
 18 19  1  0
 19 20  2  0
 20 21  1  0
 21 22  1  0
 22 23  2  0
 13  8  1  0
 23 19  1  0
  3 24  1  0
  3 25  1  0
  5 26  1  0
  5 27  1  0
  9 28  1  0
  9 29  1  0
 10 30  1  0
 10 31  1  0
 11 32  1  0
 11 33  1  0
 12 34  1  0
 12 35  1  0
 13 36  1  0
 13 37  1  0
 14 38  1  0
 15 39  1  0
 16 40  1  0
 16 41  1  0
 17 42  1  0
 18 43  1  0
 18 44  1  0
 20 45  1  0
 21 46  1  0
 22 47  1  0
M  END
>  <Energy>  (1272) 
913.22279296442434

>  <compound_id>  (1272) 
17770

>  <target_id>  (1272) 
1

>  <reference_id>  (1272) 
9

>  <inspiration_ids>  (1272) 
[63, 9]

>  <energy_score>  (1272) 
801.5251317919619

>  <distance_score>  (1272) 
12.854613656604974

>  <path>  (1272) 
/opt/xchem-fragalysis-2/maxwin/BulkDock/SCRATCH/511014/C17770-P9/C17770-P9.minimised.mol

>  <scratch_subdir>  (1272) 
/opt/xchem-fragalysis-2/maxwin/BulkDock/SCRATCH/511014/C17770-P9

>  <fragmenstein_runtime>  (1272) 
26.038235902786255

>  <fragmenstein_outcome>  (1272) 
too moved

>  <fragmenstein_mode>  (1272) 
expansion

>  <fragmenstein_error>  (1272) 


$$$$
C17771-P63
     RDKit          3D

 34 36  0  0  0  0  0  0  0  0999 V2000
   -3.4145  -18.6271   16.4819 O   0  0  0  0  0  0  0  0  0  0  0  0
   -4.2776  -18.6546   17.2378 C   0  0  0  0  0  0  0  0  0  0  0  0
   -3.7712  -17.5908   18.6885 C   0  0  0  0  0  0  0  0  0  0  0  0
   -4.1132  -16.6224   17.5949 C   0  0  0  0  0  0  0  0  0  0  0  0
   -3.4001  -15.3891   16.7152 N   0  0  0  0  0  0  0  0  0  0  0  0
   -2.2377  -14.6019   17.1285 C   0  0  0  0  0  0  0  0  0  0  0  0
   -1.5690  -14.9216   18.3597 C   0  0  0  0  0  0  0  0  0  0  0  0
    0.2335  -14.0740   18.1456 N   0  0  0  0  0  0  0  0  0  0  0  0
    1.7886  -15.0810   18.4822 C   0  0  0  0  0  0  0  0  0  0  0  0
    2.9178  -14.5416   18.1857 C   0  0  0  0  0  0  0  0  0  0  0  0
    2.1758  -13.5287   17.9012 N   0  0  0  0  0  0  0  0  0  0  0  0
    1.1280  -13.9220   17.1715 C   0  0  0  0  0  0  0  0  0  0  0  0
   -2.3174  -16.5207   18.8847 N   0  0  0  0  0  0  0  0  0  0  0  0
   -5.9720  -19.5438   16.6669 N   0  0  0  0  0  0  0  0  0  0  0  0
   -6.5717  -21.2320   16.8377 C   0  0  0  0  0  0  0  0  0  0  0  0
   -7.7424  -22.3679   15.4599 C   0  0  0  0  0  0  0  0  0  0  0  0
   -8.4554  -22.2404   14.1310 C   0  0  0  0  0  0  0  0  0  0  0  0
   -7.3455  -21.5310   13.4452 C   0  0  0  0  0  0  0  0  0  0  0  0
   -6.4897  -20.2898   14.6375 C   0  0  0  0  0  0  0  0  0  0  0  0
   -5.0542  -16.6371   17.0784 H   0  0  0  0  0  0  0  0  0  0  0  0
   -1.9002  -13.8570   16.4672 H   0  0  0  0  0  0  0  0  0  0  0  0
    1.2381  -15.8934   18.9814 H   0  0  0  0  0  0  0  0  0  0  0  0
    3.9804  -14.6469   18.2805 H   0  0  0  0  0  0  0  0  0  0  0  0
    1.0664  -14.4903   16.3266 H   0  0  0  0  0  0  0  0  0  0  0  0
   -6.0422  -21.7527   17.6876 H   0  0  0  0  0  0  0  0  0  0  0  0
   -7.3900  -20.8898   17.5236 H   0  0  0  0  0  0  0  0  0  0  0  0
   -8.8470  -22.3436   15.8064 H   0  0  0  0  0  0  0  0  0  0  0  0
   -7.3964  -23.3381   15.6125 H   0  0  0  0  0  0  0  0  0  0  0  0
   -9.4493  -21.7585   14.2313 H   0  0  0  0  0  0  0  0  0  0  0  0
   -8.8578  -23.1390   13.6461 H   0  0  0  0  0  0  0  0  0  0  0  0
   -7.5898  -20.9164   12.5448 H   0  0  0  0  0  0  0  0  0  0  0  0
   -6.9917  -22.2737   12.7465 H   0  0  0  0  0  0  0  0  0  0  0  0
   -6.1360  -19.3066   14.1075 H   0  0  0  0  0  0  0  0  0  0  0  0
   -5.6583  -20.3498   13.7094 H   0  0  0  0  0  0  0  0  0  0  0  0
  1  2  2  0
  2  3  1  0
  3  4  2  0
  4  5  1  0
  5  6  2  0
  6  7  1  0
  7  8  1  0
  8  9  1  0
  9 10  2  0
 10 11  1  0
 11 12  2  0
  7 13  2  0
  2 14  1  0
 14 15  1  0
 15 16  1  0
 16 17  1  0
 17 18  1  0
 18 19  1  0
 13  3  1  0
 19 14  1  0
 12  8  1  0
  4 20  1  0
  6 21  1  0
  9 22  1  0
 10 23  1  0
 12 24  1  0
 15 25  1  0
 15 26  1  0
 16 27  1  0
 16 28  1  0
 17 29  1  0
 17 30  1  0
 18 31  1  0
 18 32  1  0
 19 33  1  0
 19 34  1  0
M  END
>  <Energy>  (1273) 
1513.2478721836069

>  <compound_id>  (1273) 
17771

>  <target_id>  (1273) 
1

>  <reference_id>  (1273) 
63

>  <inspiration_ids>  (1273) 
[63, 9]

>  <energy_score>  (1273) 
1373.6063546648356

>  <distance_score>  (1273) 
12.49935483511861

>  <path>  (1273) 
/opt/xchem-fragalysis-2/maxwin/BulkDock/SCRATCH/511014/C17771-P63/C17771-P63.minimised.mol

>  <scratch_subdir>  (1273) 
/opt/xchem-fragalysis-2/maxwin/BulkDock/SCRATCH/511014/C17771-P63

>  <fragmenstein_runtime>  (1273) 
9.38676118850708

>  <fragmenstein_outcome>  (1273) 
too moved

>  <fragmenstein_mode>  (1273) 
expansion

>  <fragmenstein_error>  (1273) 


$$$$
C17771-P9
     RDKit          3D

 34 36  0  0  0  0  0  0  0  0999 V2000
  -11.4388  -17.3772   15.8497 O   0  0  0  0  0  0  0  0  0  0  0  0
  -11.6698  -16.4113   16.5227 C   0  0  0  0  0  0  0  0  0  0  0  0
  -10.4897  -15.5160   16.7347 C   0  0  0  0  0  0  0  0  0  0  0  0
  -10.5997  -14.2392   17.2336 C   0  0  0  0  0  0  0  0  0  0  0  0
   -9.5382  -13.3963   17.2904 N   0  0  0  0  0  0  0  0  0  0  0  0
   -8.3487  -13.9206   16.8953 C   0  0  0  0  0  0  0  0  0  0  0  0
   -8.1842  -15.2611   16.5769 C   0  0  0  0  0  0  0  0  0  0  0  0
   -6.9562  -15.7377   16.0381 N   0  0  0  0  0  0  0  0  0  0  0  0
   -5.2989  -16.1434   16.6163 C   0  0  0  0  0  0  0  0  0  0  0  0
   -4.5205  -16.4908   15.3058 C   0  0  0  0  0  0  0  0  0  0  0  0
   -5.7507  -16.4989   13.9947 N   0  0  0  0  0  0  0  0  0  0  0  0
   -7.0697  -16.2373   14.4274 C   0  0  0  0  0  0  0  0  0  0  0  0
   -9.2708  -16.0484   16.4123 N   0  0  0  0  0  0  0  0  0  0  0  0
  -12.8521  -16.0331   17.2261 N   0  0  0  0  0  0  0  0  0  0  0  0
  -13.7517  -15.1737   16.3245 C   0  0  0  0  0  0  0  0  0  0  0  0
  -14.1804  -15.7770   14.9662 C   0  0  0  0  0  0  0  0  0  0  0  0
  -15.1511  -16.9148   15.1789 C   0  0  0  0  0  0  0  0  0  0  0  0
  -14.6603  -17.7190   16.3521 C   0  0  0  0  0  0  0  0  0  0  0  0
  -14.1488  -16.7744   17.4446 C   0  0  0  0  0  0  0  0  0  0  0  0
  -11.5348  -13.8124   17.5714 H   0  0  0  0  0  0  0  0  0  0  0  0
   -7.5393  -13.2006   16.8478 H   0  0  0  0  0  0  0  0  0  0  0  0
   -5.1402  -16.4217   17.6335 H   0  0  0  0  0  0  0  0  0  0  0  0
   -3.5733  -16.9304   15.0483 H   0  0  0  0  0  0  0  0  0  0  0  0
   -8.0409  -16.1785   13.9610 H   0  0  0  0  0  0  0  0  0  0  0  0
  -13.1064  -14.3316   16.0355 H   0  0  0  0  0  0  0  0  0  0  0  0
  -14.5650  -14.6540   16.8585 H   0  0  0  0  0  0  0  0  0  0  0  0
  -13.2986  -16.1186   14.4181 H   0  0  0  0  0  0  0  0  0  0  0  0
  -14.6509  -15.0019   14.3504 H   0  0  0  0  0  0  0  0  0  0  0  0
  -15.2661  -17.5285   14.2822 H   0  0  0  0  0  0  0  0  0  0  0  0
  -16.1409  -16.5027   15.4123 H   0  0  0  0  0  0  0  0  0  0  0  0
  -13.8715  -18.3960   16.0338 H   0  0  0  0  0  0  0  0  0  0  0  0
  -15.4759  -18.3313   16.7478 H   0  0  0  0  0  0  0  0  0  0  0  0
  -14.9383  -16.1901   17.9466 H   0  0  0  0  0  0  0  0  0  0  0  0
  -13.8498  -17.4639   18.2504 H   0  0  0  0  0  0  0  0  0  0  0  0
  1  2  2  0
  2  3  1  0
  3  4  2  0
  4  5  1  0
  5  6  2  0
  6  7  1  0
  7  8  1  0
  8  9  1  0
  9 10  2  0
 10 11  1  0
 11 12  2  0
  7 13  2  0
  2 14  1  0
 14 15  1  0
 15 16  1  0
 16 17  1  0
 17 18  1  0
 18 19  1  0
 13  3  1  0
 19 14  1  0
 12  8  1  0
  4 20  1  0
  6 21  1  0
  9 22  1  0
 10 23  1  0
 12 24  1  0
 15 25  1  0
 15 26  1  0
 16 27  1  0
 16 28  1  0
 17 29  1  0
 17 30  1  0
 18 31  1  0
 18 32  1  0
 19 33  1  0
 19 34  1  0
M  END
>  <Energy>  (1274) 
340.16122956423982

>  <compound_id>  (1274) 
17771

>  <target_id>  (1274) 
1

>  <reference_id>  (1274) 
9

>  <inspiration_ids>  (1274) 
[63, 9]

>  <energy_score>  (1274) 
200.51971204546635

>  <distance_score>  (1274) 
16.296543464257162

>  <path>  (1274) 
/opt/xchem-fragalysis-2/maxwin/BulkDock/SCRATCH/511014/C17771-P9/C17771-P9.minimised.mol

>  <scratch_subdir>  (1274) 
/opt/xchem-fragalysis-2/maxwin/BulkDock/SCRATCH/511014/C17771-P9

>  <fragmenstein_runtime>  (1274) 
14.47421932220459

>  <fragmenstein_outcome>  (1274) 
too moved

>  <fragmenstein_mode>  (1274) 
expansion

>  <fragmenstein_error>  (1274) 


$$$$
C17772-P63
     RDKit          3D

 49 51  0  0  0  0  0  0  0  0999 V2000
   -4.4736  -19.6524   12.2493 C   0  0  0  0  0  0  0  0  0  0  0  0
   -5.6365  -18.6876   13.1458 C   0  0  0  0  0  0  0  0  0  0  0  0
   -6.1852  -20.1140   13.3134 C   0  0  0  0  0  0  0  0  0  0  0  0
   -5.1713  -16.9634   14.2330 C   0  0  0  0  0  0  0  0  0  0  0  0
   -6.1390  -16.2262   14.1990 O   0  0  0  0  0  0  0  0  0  0  0  0
   -3.6726  -16.4182   15.3743 N   0  0  0  0  0  0  0  0  0  0  0  0
   -3.4178  -14.9491   16.6233 C   0  0  0  0  0  0  0  0  0  0  0  0
   -1.6543  -14.0709   17.5116 C   0  0  0  0  0  0  0  0  0  0  0  0
    0.3244  -13.7460   16.8915 N   0  0  0  0  0  0  0  0  0  0  0  0
    1.7054  -12.6162   15.9690 C   0  0  0  0  0  0  0  0  0  0  0  0
    3.3278  -12.0800   15.4366 N   0  0  0  0  0  0  0  0  0  0  0  0
    4.1306  -10.8987   15.3540 C   0  0  0  0  0  0  0  0  0  0  0  0
    3.7882  -10.4393   16.5326 C   0  0  0  0  0  0  0  0  0  0  0  0
    3.0284  -11.5957   16.9465 N   0  0  0  0  0  0  0  0  0  0  0  0
   -1.2900  -14.1930   15.7417 C   0  0  0  0  0  0  0  0  0  0  0  0
   -2.4848  -15.5691   15.0173 C   0  0  0  0  0  0  0  0  0  0  0  0
   -7.1138  -18.0522   12.2152 N   0  0  0  0  0  0  0  0  0  0  0  0
   -7.4619  -16.6213   12.1671 C   0  0  0  0  0  0  0  0  0  0  0  0
   -8.0091  -16.0603   10.8373 C   0  0  0  0  0  0  0  0  0  0  0  0
   -8.9583  -16.9559   10.0843 C   0  0  0  0  0  0  0  0  0  0  0  0
   -8.3560  -18.3344   10.0008 C   0  0  0  0  0  0  0  0  0  0  0  0
   -8.0713  -18.8528   11.4037 C   0  0  0  0  0  0  0  0  0  0  0  0
   -3.6720  -19.8115   12.8910 H   0  0  0  0  0  0  0  0  0  0  0  0
   -4.4201  -20.7438   12.1155 H   0  0  0  0  0  0  0  0  0  0  0  0
   -4.3457  -19.5528   11.1951 H   0  0  0  0  0  0  0  0  0  0  0  0
   -5.5289  -20.9066   13.2814 H   0  0  0  0  0  0  0  0  0  0  0  0
   -6.9399  -20.4492   12.6285 H   0  0  0  0  0  0  0  0  0  0  0  0
   -6.7010  -20.4334   14.1436 H   0  0  0  0  0  0  0  0  0  0  0  0
   -4.2422  -15.4339   17.1898 H   0  0  0  0  0  0  0  0  0  0  0  0
   -3.5899  -14.0266   16.1890 H   0  0  0  0  0  0  0  0  0  0  0  0
   -1.5870  -14.6895   18.4294 H   0  0  0  0  0  0  0  0  0  0  0  0
   -1.9358  -13.0589   17.8790 H   0  0  0  0  0  0  0  0  0  0  0  0
    4.8706  -10.7001   14.5976 H   0  0  0  0  0  0  0  0  0  0  0  0
    4.1529   -9.6699   17.1904 H   0  0  0  0  0  0  0  0  0  0  0  0
    3.2960  -12.0691   17.7893 H   0  0  0  0  0  0  0  0  0  0  0  0
   -1.8807  -13.3765   16.1026 H   0  0  0  0  0  0  0  0  0  0  0  0
   -1.0488  -13.9322   14.5684 H   0  0  0  0  0  0  0  0  0  0  0  0
   -1.9780  -15.4719   15.9280 H   0  0  0  0  0  0  0  0  0  0  0  0
   -2.2647  -16.5498   14.7899 H   0  0  0  0  0  0  0  0  0  0  0  0
   -8.1881  -16.4059   12.9590 H   0  0  0  0  0  0  0  0  0  0  0  0
   -6.5867  -15.9855   12.2732 H   0  0  0  0  0  0  0  0  0  0  0  0
   -8.4888  -15.0924   11.0282 H   0  0  0  0  0  0  0  0  0  0  0  0
   -7.1603  -15.8433   10.1751 H   0  0  0  0  0  0  0  0  0  0  0  0
   -9.9232  -16.9662   10.5903 H   0  0  0  0  0  0  0  0  0  0  0  0
   -9.1348  -16.5583    9.0786 H   0  0  0  0  0  0  0  0  0  0  0  0
   -7.4358  -18.3120    9.4054 H   0  0  0  0  0  0  0  0  0  0  0  0
   -9.0540  -19.0060    9.4880 H   0  0  0  0  0  0  0  0  0  0  0  0
   -9.0395  -18.8450   11.9149 H   0  0  0  0  0  0  0  0  0  0  0  0
   -7.8498  -19.8921   11.2599 H   0  0  0  0  0  0  0  0  0  0  0  0
  1  2  1  0
  2  3  1  0
  2  4  1  0
  4  5  2  0
  4  6  1  0
  6  7  1  0
  7  8  1  0
  8  9  1  0
  9 10  1  0
 10 11  2  0
 11 12  1  0
 12 13  2  0
 13 14  1  0
  9 15  1  0
 15 16  1  0
  2 17  1  0
 17 18  1  0
 18 19  1  0
 19 20  1  0
 20 21  1  0
 21 22  1  0
 16  6  1  0
 22 17  1  0
 14 10  1  0
  1 23  1  0
  1 24  1  0
  1 25  1  0
  3 26  1  0
  3 27  1  0
  3 28  1  0
  7 29  1  0
  7 30  1  0
  8 31  1  0
  8 32  1  0
 12 33  1  0
 13 34  1  0
 14 35  1  0
 15 36  1  0
 15 37  1  0
 16 38  1  0
 16 39  1  0
 18 40  1  0
 18 41  1  0
 19 42  1  0
 19 43  1  0
 20 44  1  0
 20 45  1  0
 21 46  1  0
 21 47  1  0
 22 48  1  0
 22 49  1  0
M  END
>  <Energy>  (1275) 
1882.1264647872879

>  <compound_id>  (1275) 
17772

>  <target_id>  (1275) 
1

>  <reference_id>  (1275) 
63

>  <inspiration_ids>  (1275) 
[63, 9]

>  <energy_score>  (1275) 
1739.4127956107686

>  <distance_score>  (1275) 
11.84137048927854

>  <path>  (1275) 
/opt/xchem-fragalysis-2/maxwin/BulkDock/SCRATCH/511014/C17772-P63/C17772-P63.minimised.mol

>  <scratch_subdir>  (1275) 
/opt/xchem-fragalysis-2/maxwin/BulkDock/SCRATCH/511014/C17772-P63

>  <fragmenstein_runtime>  (1275) 
18.6749529838562

>  <fragmenstein_outcome>  (1275) 
too moved

>  <fragmenstein_mode>  (1275) 
expansion

>  <fragmenstein_error>  (1275) 


$$$$
C17772-P9
     RDKit          3D

 49 51  0  0  0  0  0  0  0  0999 V2000
   -3.6738  -23.1973   10.7686 C   0  0  0  0  0  0  0  0  0  0  0  0
   -2.9326  -24.4987   11.0738 C   0  0  0  0  0  0  0  0  0  0  0  0
   -2.5828  -24.6293   12.5780 C   0  0  0  0  0  0  0  0  0  0  0  0
   -1.4308  -24.6865   10.3400 C   0  0  0  0  0  0  0  0  0  0  0  0
   -1.2709  -25.7296    9.7450 O   0  0  0  0  0  0  0  0  0  0  0  0
   -0.4796  -23.5862   10.6144 N   0  0  0  0  0  0  0  0  0  0  0  0
    1.0026  -23.4751   10.3385 C   0  0  0  0  0  0  0  0  0  0  0  0
    1.7847  -22.2571   10.9708 C   0  0  0  0  0  0  0  0  0  0  0  0
    1.2873  -20.9914   10.4186 N   0  0  0  0  0  0  0  0  0  0  0  0
    2.0949  -19.8558   10.5191 C   0  0  0  0  0  0  0  0  0  0  0  0
    3.2954  -19.7192   11.0632 N   0  0  0  0  0  0  0  0  0  0  0  0
    3.6530  -18.3890   10.9348 C   0  0  0  0  0  0  0  0  0  0  0  0
    2.6723  -17.6929   10.2771 C   0  0  0  0  0  0  0  0  0  0  0  0
    1.6713  -18.6112   10.0810 N   0  0  0  0  0  0  0  0  0  0  0  0
    0.4879  -21.2904    9.2244 C   0  0  0  0  0  0  0  0  0  0  0  0
   -0.5406  -22.5145    9.4649 C   0  0  0  0  0  0  0  0  0  0  0  0
   -3.8776  -25.6705   10.7466 N   0  0  0  0  0  0  0  0  0  0  0  0
   -4.4167  -25.6923    9.3799 C   0  0  0  0  0  0  0  0  0  0  0  0
   -5.9027  -25.3174    9.2690 C   0  0  0  0  0  0  0  0  0  0  0  0
   -6.8064  -26.1989   10.1285 C   0  0  0  0  0  0  0  0  0  0  0  0
   -6.0393  -26.8618   11.2644 C   0  0  0  0  0  0  0  0  0  0  0  0
   -4.9107  -25.9590   11.7639 C   0  0  0  0  0  0  0  0  0  0  0  0
   -4.6972  -23.1860   11.1522 H   0  0  0  0  0  0  0  0  0  0  0  0
   -3.1850  -22.3293   11.1957 H   0  0  0  0  0  0  0  0  0  0  0  0
   -3.7263  -23.0160    9.6897 H   0  0  0  0  0  0  0  0  0  0  0  0
   -2.1832  -25.6286   12.7954 H   0  0  0  0  0  0  0  0  0  0  0  0
   -1.7954  -23.9377   12.8764 H   0  0  0  0  0  0  0  0  0  0  0  0
   -3.4214  -24.4592   13.2390 H   0  0  0  0  0  0  0  0  0  0  0  0
    1.2952  -23.7301    9.3042 H   0  0  0  0  0  0  0  0  0  0  0  0
    1.3930  -24.3500   10.8816 H   0  0  0  0  0  0  0  0  0  0  0  0
    2.8509  -22.3906   10.7507 H   0  0  0  0  0  0  0  0  0  0  0  0
    1.6551  -22.2579   12.0588 H   0  0  0  0  0  0  0  0  0  0  0  0
    4.5898  -18.0204   11.3271 H   0  0  0  0  0  0  0  0  0  0  0  0
    2.5590  -16.6596    9.9932 H   0  0  0  0  0  0  0  0  0  0  0  0
    0.7377  -18.4305    9.7345 H   0  0  0  0  0  0  0  0  0  0  0  0
    1.1723  -21.5840    8.4149 H   0  0  0  0  0  0  0  0  0  0  0  0
   -0.0587  -20.4357    8.8260 H   0  0  0  0  0  0  0  0  0  0  0  0
   -1.5269  -22.0559    9.5871 H   0  0  0  0  0  0  0  0  0  0  0  0
   -0.6453  -23.0586    8.5105 H   0  0  0  0  0  0  0  0  0  0  0  0
   -3.8257  -25.0676    8.7004 H   0  0  0  0  0  0  0  0  0  0  0  0
   -4.2955  -26.7147    8.9981 H   0  0  0  0  0  0  0  0  0  0  0  0
   -6.0321  -24.2717    9.5638 H   0  0  0  0  0  0  0  0  0  0  0  0
   -6.2231  -25.3779    8.2222 H   0  0  0  0  0  0  0  0  0  0  0  0
   -7.6244  -25.5890   10.5301 H   0  0  0  0  0  0  0  0  0  0  0  0
   -7.2747  -26.9749    9.5117 H   0  0  0  0  0  0  0  0  0  0  0  0
   -5.6188  -27.8154   10.9201 H   0  0  0  0  0  0  0  0  0  0  0  0
   -6.7263  -27.1039   12.0829 H   0  0  0  0  0  0  0  0  0  0  0  0
   -5.3703  -25.0335   12.1253 H   0  0  0  0  0  0  0  0  0  0  0  0
   -4.4449  -26.4626   12.6179 H   0  0  0  0  0  0  0  0  0  0  0  0
  1  2  1  0
  2  3  1  0
  2  4  1  0
  4  5  2  0
  4  6  1  0
  6  7  1  0
  7  8  1  0
  8  9  1  0
  9 10  1  0
 10 11  2  0
 11 12  1  0
 12 13  2  0
 13 14  1  0
  9 15  1  0
 15 16  1  0
  2 17  1  0
 17 18  1  0
 18 19  1  0
 19 20  1  0
 20 21  1  0
 21 22  1  0
 16  6  1  0
 22 17  1  0
 14 10  1  0
  1 23  1  0
  1 24  1  0
  1 25  1  0
  3 26  1  0
  3 27  1  0
  3 28  1  0
  7 29  1  0
  7 30  1  0
  8 31  1  0
  8 32  1  0
 12 33  1  0
 13 34  1  0
 14 35  1  0
 15 36  1  0
 15 37  1  0
 16 38  1  0
 16 39  1  0
 18 40  1  0
 18 41  1  0
 19 42  1  0
 19 43  1  0
 20 44  1  0
 20 45  1  0
 21 46  1  0
 21 47  1  0
 22 48  1  0
 22 49  1  0
M  END
>  <Energy>  (1276) 
178.1948017013363

>  <compound_id>  (1276) 
17772

>  <target_id>  (1276) 
1

>  <reference_id>  (1276) 
9

>  <inspiration_ids>  (1276) 
[63, 9]

>  <energy_score>  (1276) 
35.481132524804366

>  <distance_score>  (1276) 
14.199315858018872

>  <path>  (1276) 
/opt/xchem-fragalysis-2/maxwin/BulkDock/SCRATCH/511014/C17772-P9/C17772-P9.minimised.mol

>  <scratch_subdir>  (1276) 
/opt/xchem-fragalysis-2/maxwin/BulkDock/SCRATCH/511014/C17772-P9

>  <fragmenstein_runtime>  (1276) 
27.576685667037964

>  <fragmenstein_outcome>  (1276) 
too moved

>  <fragmenstein_mode>  (1276) 
expansion

>  <fragmenstein_error>  (1276) 


$$$$
C17774-P63
     RDKit          3D

 44 46  0  0  0  0  0  0  0  0999 V2000
   -6.3899  -16.9544   11.4573 C   0  0  0  0  0  0  0  0  0  0  0  0
   -5.6428  -15.9000   12.5952 C   0  0  0  0  0  0  0  0  0  0  0  0
   -5.9867  -16.8875   14.0409 C   0  0  0  0  0  0  0  0  0  0  0  0
   -3.7555  -14.9694   12.2574 C   0  0  0  0  0  0  0  0  0  0  0  0
   -3.6265  -14.0707   13.0262 O   0  0  0  0  0  0  0  0  0  0  0  0
   -2.3942  -15.0963   10.9350 N   0  0  0  0  0  0  0  0  0  0  0  0
   -0.7400  -16.0227   10.9416 C   0  0  0  0  0  0  0  0  0  0  0  0
   -0.3236  -15.0835    9.7986 C   0  0  0  0  0  0  0  0  0  0  0  0
    1.0938  -14.2441    9.5216 C   0  0  0  0  0  0  0  0  0  0  0  0
    1.3363  -12.8854    9.7546 C   0  0  0  0  0  0  0  0  0  0  0  0
    2.6009  -12.5095    9.3628 N   0  0  0  0  0  0  0  0  0  0  0  0
    3.1152  -13.5908    8.8291 C   0  0  0  0  0  0  0  0  0  0  0  0
    2.2409  -14.6557    8.8819 N   0  0  0  0  0  0  0  0  0  0  0  0
   -1.1518  -14.1510   10.5887 C   0  0  0  0  0  0  0  0  0  0  0  0
   -6.8967  -14.8209   12.4987 N   0  0  0  0  0  0  0  0  0  0  0  0
   -8.1120  -15.2143   13.2849 C   0  0  0  0  0  0  0  0  0  0  0  0
   -9.4209  -14.5449   12.8775 C   0  0  0  0  0  0  0  0  0  0  0  0
   -9.8175  -15.0226   11.4985 C   0  0  0  0  0  0  0  0  0  0  0  0
   -8.6569  -14.9057   10.5245 C   0  0  0  0  0  0  0  0  0  0  0  0
   -7.3180  -14.4081   11.1306 C   0  0  0  0  0  0  0  0  0  0  0  0
   -6.0103  -16.7714   10.4454 H   0  0  0  0  0  0  0  0  0  0  0  0
   -7.4749  -16.8868   11.4459 H   0  0  0  0  0  0  0  0  0  0  0  0
   -6.3090  -18.0183   11.7067 H   0  0  0  0  0  0  0  0  0  0  0  0
   -6.9532  -16.7502   14.5143 H   0  0  0  0  0  0  0  0  0  0  0  0
   -5.2434  -16.7398   14.8365 H   0  0  0  0  0  0  0  0  0  0  0  0
   -5.9316  -17.9484   13.7832 H   0  0  0  0  0  0  0  0  0  0  0  0
   -0.1098  -15.8229   11.8156 H   0  0  0  0  0  0  0  0  0  0  0  0
   -0.6463  -17.0298   10.5061 H   0  0  0  0  0  0  0  0  0  0  0  0
   -0.7506  -15.3762    8.8295 H   0  0  0  0  0  0  0  0  0  0  0  0
    0.6759  -12.1533   10.2037 H   0  0  0  0  0  0  0  0  0  0  0  0
    4.0997  -13.6798    8.3905 H   0  0  0  0  0  0  0  0  0  0  0  0
    2.4249  -15.5828    8.5252 H   0  0  0  0  0  0  0  0  0  0  0  0
   -1.3653  -13.4745    9.7523 H   0  0  0  0  0  0  0  0  0  0  0  0
   -0.6315  -13.7168   11.4489 H   0  0  0  0  0  0  0  0  0  0  0  0
   -8.3177  -16.2870   13.2095 H   0  0  0  0  0  0  0  0  0  0  0  0
   -7.9605  -14.9725   14.3397 H   0  0  0  0  0  0  0  0  0  0  0  0
  -10.2102  -14.7995   13.5944 H   0  0  0  0  0  0  0  0  0  0  0  0
   -9.3139  -13.4535   12.8963 H   0  0  0  0  0  0  0  0  0  0  0  0
  -10.6816  -14.4546   11.1357 H   0  0  0  0  0  0  0  0  0  0  0  0
  -10.1375  -16.0693   11.5508 H   0  0  0  0  0  0  0  0  0  0  0  0
   -8.9404  -14.2001    9.7317 H   0  0  0  0  0  0  0  0  0  0  0  0
   -8.5228  -15.8594   10.0018 H   0  0  0  0  0  0  0  0  0  0  0  0
   -6.5680  -14.6193   10.3666 H   0  0  0  0  0  0  0  0  0  0  0  0
   -7.3855  -13.3121   11.1710 H   0  0  0  0  0  0  0  0  0  0  0  0
  1  2  1  0
  2  3  1  0
  2  4  1  0
  4  5  2  0
  4  6  1  0
  6  7  1  0
  7  8  1  0
  8  9  1  0
  9 10  2  0
 10 11  1  0
 11 12  2  0
 12 13  1  0
  8 14  1  0
  2 15  1  0
 15 16  1  0
 16 17  1  0
 17 18  1  0
 18 19  1  0
 19 20  1  0
 14  6  1  0
 20 15  1  0
 13  9  1  0
  1 21  1  0
  1 22  1  0
  1 23  1  0
  3 24  1  0
  3 25  1  0
  3 26  1  0
  7 27  1  0
  7 28  1  0
  8 29  1  0
 10 30  1  0
 12 31  1  0
 13 32  1  0
 14 33  1  0
 14 34  1  0
 16 35  1  0
 16 36  1  0
 17 37  1  0
 17 38  1  0
 18 39  1  0
 18 40  1  0
 19 41  1  0
 19 42  1  0
 20 43  1  0
 20 44  1  0
M  END
>  <Energy>  (1277) 
442.86946721863745

>  <compound_id>  (1277) 
17774

>  <target_id>  (1277) 
1

>  <reference_id>  (1277) 
63

>  <inspiration_ids>  (1277) 
[63, 9]

>  <energy_score>  (1277) 
320.5959148773801

>  <distance_score>  (1277) 
14.929841205630515

>  <path>  (1277) 
/opt/xchem-fragalysis-2/maxwin/BulkDock/SCRATCH/511014/C17774-P63/C17774-P63.minimised.mol

>  <scratch_subdir>  (1277) 
/opt/xchem-fragalysis-2/maxwin/BulkDock/SCRATCH/511014/C17774-P63

>  <fragmenstein_runtime>  (1277) 
16.594196796417236

>  <fragmenstein_outcome>  (1277) 
too moved

>  <fragmenstein_mode>  (1277) 
expansion

>  <fragmenstein_error>  (1277) 


$$$$
C17774-P9
     RDKit          3D

 44 46  0  0  0  0  0  0  0  0999 V2000
   -0.2726  -23.4487   10.9748 C   0  0  0  0  0  0  0  0  0  0  0  0
   -0.5794  -21.9455   11.2012 C   0  0  0  0  0  0  0  0  0  0  0  0
   -0.4886  -21.7439   12.7127 C   0  0  0  0  0  0  0  0  0  0  0  0
    0.5507  -21.0057   10.3772 C   0  0  0  0  0  0  0  0  0  0  0  0
    0.9168  -21.4544    9.3076 O   0  0  0  0  0  0  0  0  0  0  0  0
    0.8597  -19.7290   11.0221 N   0  0  0  0  0  0  0  0  0  0  0  0
    2.1611  -19.8384   11.9497 C   0  0  0  0  0  0  0  0  0  0  0  0
    2.9967  -19.0586   10.9362 C   0  0  0  0  0  0  0  0  0  0  0  0
    4.1612  -18.0254   11.3923 C   0  0  0  0  0  0  0  0  0  0  0  0
    4.9778  -17.2619   10.5750 C   0  0  0  0  0  0  0  0  0  0  0  0
    5.9358  -16.5779   11.3037 N   0  0  0  0  0  0  0  0  0  0  0  0
    5.7229  -16.9356   12.5475 C   0  0  0  0  0  0  0  0  0  0  0  0
    4.6295  -17.7601   12.6568 N   0  0  0  0  0  0  0  0  0  0  0  0
    1.6505  -18.5095   10.5182 C   0  0  0  0  0  0  0  0  0  0  0  0
   -2.0014  -21.6759   10.7253 N   0  0  0  0  0  0  0  0  0  0  0  0
   -3.0912  -22.3819   11.4251 C   0  0  0  0  0  0  0  0  0  0  0  0
   -3.7976  -23.4872   10.6300 C   0  0  0  0  0  0  0  0  0  0  0  0
   -4.3450  -22.9826    9.3036 C   0  0  0  0  0  0  0  0  0  0  0  0
   -3.6810  -21.6790    8.8763 C   0  0  0  0  0  0  0  0  0  0  0  0
   -2.1966  -21.6490    9.2741 C   0  0  0  0  0  0  0  0  0  0  0  0
   -0.9331  -24.1124   11.5422 H   0  0  0  0  0  0  0  0  0  0  0  0
   -0.3340  -23.7318    9.9194 H   0  0  0  0  0  0  0  0  0  0  0  0
    0.7554  -23.6698   11.2880 H   0  0  0  0  0  0  0  0  0  0  0  0
   -0.8778  -20.7719   12.9974 H   0  0  0  0  0  0  0  0  0  0  0  0
    0.5530  -21.7870   13.0481 H   0  0  0  0  0  0  0  0  0  0  0  0
   -1.0082  -22.5219   13.2756 H   0  0  0  0  0  0  0  0  0  0  0  0
    1.9554  -19.3689   12.9172 H   0  0  0  0  0  0  0  0  0  0  0  0
    2.4764  -20.8755   12.1020 H   0  0  0  0  0  0  0  0  0  0  0  0
    3.4196  -19.7279   10.1725 H   0  0  0  0  0  0  0  0  0  0  0  0
    4.9408  -17.1823    9.4959 H   0  0  0  0  0  0  0  0  0  0  0  0
    6.2976  -16.6294   13.4092 H   0  0  0  0  0  0  0  0  0  0  0  0
    4.2027  -18.0843   13.5150 H   0  0  0  0  0  0  0  0  0  0  0  0
    1.2997  -17.5983   11.0133 H   0  0  0  0  0  0  0  0  0  0  0  0
    1.5261  -18.3797    9.4376 H   0  0  0  0  0  0  0  0  0  0  0  0
   -2.7614  -22.8133   12.3690 H   0  0  0  0  0  0  0  0  0  0  0  0
   -3.8317  -21.6128   11.6753 H   0  0  0  0  0  0  0  0  0  0  0  0
   -3.0891  -24.3022   10.4381 H   0  0  0  0  0  0  0  0  0  0  0  0
   -4.6109  -23.9227   11.2215 H   0  0  0  0  0  0  0  0  0  0  0  0
   -5.4248  -22.8382    9.3600 H   0  0  0  0  0  0  0  0  0  0  0  0
   -4.1830  -23.7508    8.5375 H   0  0  0  0  0  0  0  0  0  0  0  0
   -4.2020  -20.8266    9.3317 H   0  0  0  0  0  0  0  0  0  0  0  0
   -3.7790  -21.5569    7.7914 H   0  0  0  0  0  0  0  0  0  0  0  0
   -1.7002  -22.4921    8.7819 H   0  0  0  0  0  0  0  0  0  0  0  0
   -1.7558  -20.7302    8.8713 H   0  0  0  0  0  0  0  0  0  0  0  0
  1  2  1  0
  2  3  1  0
  2  4  1  0
  4  5  2  0
  4  6  1  0
  6  7  1  0
  7  8  1  0
  8  9  1  0
  9 10  2  0
 10 11  1  0
 11 12  2  0
 12 13  1  0
  8 14  1  0
  2 15  1  0
 15 16  1  0
 16 17  1  0
 17 18  1  0
 18 19  1  0
 19 20  1  0
 14  6  1  0
 20 15  1  0
 13  9  1  0
  1 21  1  0
  1 22  1  0
  1 23  1  0
  3 24  1  0
  3 25  1  0
  3 26  1  0
  7 27  1  0
  7 28  1  0
  8 29  1  0
 10 30  1  0
 12 31  1  0
 13 32  1  0
 14 33  1  0
 14 34  1  0
 16 35  1  0
 16 36  1  0
 17 37  1  0
 17 38  1  0
 18 39  1  0
 18 40  1  0
 19 41  1  0
 19 42  1  0
 20 43  1  0
 20 44  1  0
M  END
>  <Energy>  (1278) 
103.80655077109225

>  <compound_id>  (1278) 
17774

>  <target_id>  (1278) 
1

>  <reference_id>  (1278) 
9

>  <inspiration_ids>  (1278) 
[63, 9]

>  <energy_score>  (1278) 
-18.46700157016079

>  <distance_score>  (1278) 
15.02526312642855

>  <path>  (1278) 
/opt/xchem-fragalysis-2/maxwin/BulkDock/SCRATCH/511014/C17774-P9/C17774-P9.minimised.mol

>  <scratch_subdir>  (1278) 
/opt/xchem-fragalysis-2/maxwin/BulkDock/SCRATCH/511014/C17774-P9

>  <fragmenstein_runtime>  (1278) 
21.925881385803223

>  <fragmenstein_outcome>  (1278) 
too moved

>  <fragmenstein_mode>  (1278) 
expansion

>  <fragmenstein_error>  (1278) 


$$$$
C17776-P63
     RDKit          3D

 36 38  0  0  0  0  0  0  0  0999 V2000
   -8.3145  -14.9234   20.4619 O   0  0  0  0  0  0  0  0  0  0  0  0
   -8.0102  -15.3082   19.3709 C   0  0  0  0  0  0  0  0  0  0  0  0
   -8.1817  -16.5997   18.7480 N   0  0  0  0  0  0  0  0  0  0  0  0
   -8.8701  -17.8186   19.2216 C   0  0  0  0  0  0  0  0  0  0  0  0
   -8.5552  -19.1363   18.5760 C   0  0  0  0  0  0  0  0  0  0  0  0
   -7.5274  -19.9169   18.6924 N   0  0  0  0  0  0  0  0  0  0  0  0
   -7.7496  -20.9493   17.8003 N   0  0  0  0  0  0  0  0  0  0  0  0
   -8.9900  -20.9706   17.1503 C   0  0  0  0  0  0  0  0  0  0  0  0
   -9.5459  -21.8164   15.6558 N   0  0  0  0  0  0  0  0  0  0  0  0
   -8.9037  -23.0335   15.0851 C   0  0  0  0  0  0  0  0  0  0  0  0
   -9.6976  -24.0141   14.0877 C   0  0  0  0  0  0  0  0  0  0  0  0
   -9.6950  -23.5249   12.6575 C   0  0  0  0  0  0  0  0  0  0  0  0
   -9.3554  -22.0565   12.7370 C   0  0  0  0  0  0  0  0  0  0  0  0
  -10.0547  -21.4111   14.0783 C   0  0  0  0  0  0  0  0  0  0  0  0
   -9.4847  -19.6767   17.7360 O   0  0  0  0  0  0  0  0  0  0  0  0
   -7.3582  -14.2607   18.5448 C   0  0  0  0  0  0  0  0  0  0  0  0
   -6.9406  -14.1072   17.2309 C   0  0  0  0  0  0  0  0  0  0  0  0
   -6.3958  -12.8551   17.0007 N   0  0  0  0  0  0  0  0  0  0  0  0
   -6.4522  -12.2217   18.1450 C   0  0  0  0  0  0  0  0  0  0  0  0
   -6.9958  -13.0250   19.1025 N   0  0  0  0  0  0  0  0  0  0  0  0
   -7.7295  -16.5921   17.8423 H   0  0  0  0  0  0  0  0  0  0  0  0
   -9.9416  -17.6102   19.1234 H   0  0  0  0  0  0  0  0  0  0  0  0
   -8.6693  -17.8911   20.2965 H   0  0  0  0  0  0  0  0  0  0  0  0
   -8.5581  -23.7473   15.7557 H   0  0  0  0  0  0  0  0  0  0  0  0
   -8.0203  -22.6046   14.6374 H   0  0  0  0  0  0  0  0  0  0  0  0
  -10.7110  -24.2279   14.3871 H   0  0  0  0  0  0  0  0  0  0  0  0
   -9.2760  -25.0252   14.0891 H   0  0  0  0  0  0  0  0  0  0  0  0
  -10.6778  -23.6831   12.1983 H   0  0  0  0  0  0  0  0  0  0  0  0
   -8.9663  -24.0575   12.0371 H   0  0  0  0  0  0  0  0  0  0  0  0
   -9.7481  -21.5468   11.8520 H   0  0  0  0  0  0  0  0  0  0  0  0
   -8.2640  -21.9675   12.6836 H   0  0  0  0  0  0  0  0  0  0  0  0
  -10.4214  -20.3922   13.9370 H   0  0  0  0  0  0  0  0  0  0  0  0
  -10.8688  -22.0532   13.8143 H   0  0  0  0  0  0  0  0  0  0  0  0
   -7.0101  -14.8244   16.4228 H   0  0  0  0  0  0  0  0  0  0  0  0
   -6.1222  -11.2101   18.3384 H   0  0  0  0  0  0  0  0  0  0  0  0
   -7.1698  -12.7843   20.0690 H   0  0  0  0  0  0  0  0  0  0  0  0
  1  2  2  0
  2  3  1  0
  3  4  1  0
  4  5  1  0
  5  6  2  0
  6  7  1  0
  7  8  2  0
  8  9  1  0
  9 10  1  0
 10 11  1  0
 11 12  1  0
 12 13  1  0
 13 14  1  0
  8 15  1  0
  2 16  1  0
 16 17  2  0
 17 18  1  0
 18 19  2  0
 19 20  1  0
 15  5  1  0
 20 16  1  0
 14  9  1  0
  3 21  1  0
  4 22  1  0
  4 23  1  0
 10 24  1  0
 10 25  1  0
 11 26  1  0
 11 27  1  0
 12 28  1  0
 12 29  1  0
 13 30  1  0
 13 31  1  0
 14 32  1  0
 14 33  1  0
 17 34  1  0
 19 35  1  0
 20 36  1  0
M  END
>  <Energy>  (1279) 
161.39505128052483

>  <compound_id>  (1279) 
17776

>  <target_id>  (1279) 
1

>  <reference_id>  (1279) 
63

>  <inspiration_ids>  (1279) 
[63, 9]

>  <energy_score>  (1279) 
176.70866343575312

>  <distance_score>  (1279) 
15.149982751273457

>  <path>  (1279) 
/opt/xchem-fragalysis-2/maxwin/BulkDock/SCRATCH/511014/C17776-P63/C17776-P63.minimised.mol

>  <scratch_subdir>  (1279) 
/opt/xchem-fragalysis-2/maxwin/BulkDock/SCRATCH/511014/C17776-P63

>  <fragmenstein_runtime>  (1279) 
15.338586330413818

>  <fragmenstein_outcome>  (1279) 
too moved

>  <fragmenstein_mode>  (1279) 
expansion

>  <fragmenstein_error>  (1279) 


$$$$
C17776-P9
     RDKit          3D

 36 38  0  0  0  0  0  0  0  0999 V2000
    1.9743  -20.4802   11.1572 O   0  0  0  0  0  0  0  0  0  0  0  0
    1.7044  -20.5942   12.3185 C   0  0  0  0  0  0  0  0  0  0  0  0
    0.5640  -21.2162   12.9654 N   0  0  0  0  0  0  0  0  0  0  0  0
   -0.6678  -21.8146   12.3969 C   0  0  0  0  0  0  0  0  0  0  0  0
   -1.3097  -23.0799   12.9342 C   0  0  0  0  0  0  0  0  0  0  0  0
   -0.9432  -23.9548   13.8474 N   0  0  0  0  0  0  0  0  0  0  0  0
   -1.8889  -24.9889   13.8096 N   0  0  0  0  0  0  0  0  0  0  0  0
   -2.7702  -24.6995   12.8689 C   0  0  0  0  0  0  0  0  0  0  0  0
   -3.8337  -25.4268   12.3982 N   0  0  0  0  0  0  0  0  0  0  0  0
   -4.7686  -24.8613   11.4303 C   0  0  0  0  0  0  0  0  0  0  0  0
   -5.5236  -25.9439   10.6600 C   0  0  0  0  0  0  0  0  0  0  0  0
   -6.2055  -26.9317   11.5935 C   0  0  0  0  0  0  0  0  0  0  0  0
   -5.2772  -27.4332   12.7003 C   0  0  0  0  0  0  0  0  0  0  0  0
   -3.8585  -26.8615   12.6585 C   0  0  0  0  0  0  0  0  0  0  0  0
   -2.4688  -23.4916   12.2773 O   0  0  0  0  0  0  0  0  0  0  0  0
    2.6805  -19.8750   13.2021 C   0  0  0  0  0  0  0  0  0  0  0  0
    2.9320  -19.7056   14.5575 C   0  0  0  0  0  0  0  0  0  0  0  0
    4.0002  -18.8479   14.8179 N   0  0  0  0  0  0  0  0  0  0  0  0
    4.4193  -18.4672   13.6365 C   0  0  0  0  0  0  0  0  0  0  0  0
    3.6729  -19.0477   12.6492 N   0  0  0  0  0  0  0  0  0  0  0  0
    0.6213  -21.0523   13.9725 H   0  0  0  0  0  0  0  0  0  0  0  0
   -0.4641  -21.9700   11.3307 H   0  0  0  0  0  0  0  0  0  0  0  0
   -1.4185  -21.0175   12.4568 H   0  0  0  0  0  0  0  0  0  0  0  0
   -5.5017  -24.2346   11.9458 H   0  0  0  0  0  0  0  0  0  0  0  0
   -4.2474  -24.2282   10.7023 H   0  0  0  0  0  0  0  0  0  0  0  0
   -6.2666  -25.4818    9.9999 H   0  0  0  0  0  0  0  0  0  0  0  0
   -4.8215  -26.4852   10.0128 H   0  0  0  0  0  0  0  0  0  0  0  0
   -6.5795  -27.7825   11.0114 H   0  0  0  0  0  0  0  0  0  0  0  0
   -7.0906  -26.4631   12.0373 H   0  0  0  0  0  0  0  0  0  0  0  0
   -5.2146  -28.5277   12.6491 H   0  0  0  0  0  0  0  0  0  0  0  0
   -5.7205  -27.2249   13.6780 H   0  0  0  0  0  0  0  0  0  0  0  0
   -3.3667  -27.1060   13.6085 H   0  0  0  0  0  0  0  0  0  0  0  0
   -3.2875  -27.3700   11.8710 H   0  0  0  0  0  0  0  0  0  0  0  0
    2.4047  -20.1650   15.3819 H   0  0  0  0  0  0  0  0  0  0  0  0
    5.2274  -17.7806   13.4260 H   0  0  0  0  0  0  0  0  0  0  0  0
    3.7555  -18.8786   11.6571 H   0  0  0  0  0  0  0  0  0  0  0  0
  1  2  2  0
  2  3  1  0
  3  4  1  0
  4  5  1  0
  5  6  2  0
  6  7  1  0
  7  8  2  0
  8  9  1  0
  9 10  1  0
 10 11  1  0
 11 12  1  0
 12 13  1  0
 13 14  1  0
  8 15  1  0
  2 16  1  0
 16 17  2  0
 17 18  1  0
 18 19  2  0
 19 20  1  0
 15  5  1  0
 20 16  1  0
 14  9  1  0
  3 21  1  0
  4 22  1  0
  4 23  1  0
 10 24  1  0
 10 25  1  0
 11 26  1  0
 11 27  1  0
 12 28  1  0
 12 29  1  0
 13 30  1  0
 13 31  1  0
 14 32  1  0
 14 33  1  0
 17 34  1  0
 19 35  1  0
 20 36  1  0
M  END
>  <Energy>  (1280) 
-36.896595856054375

>  <compound_id>  (1280) 
17776

>  <target_id>  (1280) 
1

>  <reference_id>  (1280) 
9

>  <inspiration_ids>  (1280) 
[63, 9]

>  <energy_score>  (1280) 
-21.58298370082707

>  <distance_score>  (1280) 
14.51274364458323

>  <path>  (1280) 
/opt/xchem-fragalysis-2/maxwin/BulkDock/SCRATCH/511014/C17776-P9/C17776-P9.minimised.mol

>  <scratch_subdir>  (1280) 
/opt/xchem-fragalysis-2/maxwin/BulkDock/SCRATCH/511014/C17776-P9

>  <fragmenstein_runtime>  (1280) 
10.416797161102295

>  <fragmenstein_outcome>  (1280) 
too moved

>  <fragmenstein_mode>  (1280) 
expansion

>  <fragmenstein_error>  (1280) 


$$$$
C17777-P63
     RDKit          3D

 42 44  0  0  0  0  0  0  0  0999 V2000
    4.0269  -11.2513   15.2080 C   0  0  0  0  0  0  0  0  0  0  0  0
    3.1155  -11.4903   16.7320 C   0  0  0  0  0  0  0  0  0  0  0  0
    1.5668  -12.6911   15.9940 C   0  0  0  0  0  0  0  0  0  0  0  0
    1.5697  -12.8595   14.7640 O   0  0  0  0  0  0  0  0  0  0  0  0
    0.1811  -13.2633   17.2185 N   0  0  0  0  0  0  0  0  0  0  0  0
   -1.5629  -14.0332   16.8849 C   0  0  0  0  0  0  0  0  0  0  0  0
   -2.9223  -14.9986   16.1593 C   0  0  0  0  0  0  0  0  0  0  0  0
   -3.7200  -15.8542   16.8430 N   0  0  0  0  0  0  0  0  0  0  0  0
   -4.7026  -16.4039   16.0783 N   0  0  0  0  0  0  0  0  0  0  0  0
   -4.5672  -15.8377   14.9134 C   0  0  0  0  0  0  0  0  0  0  0  0
   -5.2796  -16.0733   13.7752 N   0  0  0  0  0  0  0  0  0  0  0  0
   -6.5587  -15.3494   13.6999 C   0  0  0  0  0  0  0  0  0  0  0  0
   -7.7332  -16.2196   13.2512 C   0  0  0  0  0  0  0  0  0  0  0  0
   -7.4047  -17.0084   11.9896 C   0  0  0  0  0  0  0  0  0  0  0  0
   -6.0130  -17.6405   12.0471 C   0  0  0  0  0  0  0  0  0  0  0  0
   -5.3359  -17.4934   13.4097 C   0  0  0  0  0  0  0  0  0  0  0  0
   -3.5615  -14.8815   14.9154 O   0  0  0  0  0  0  0  0  0  0  0  0
    2.7573   -9.7887   17.5368 N   0  0  0  0  0  0  0  0  0  0  0  0
    1.6241   -8.8149   17.7332 C   0  0  0  0  0  0  0  0  0  0  0  0
    2.0111   -7.5123   17.6009 C   0  0  0  0  0  0  0  0  0  0  0  0
    3.2691   -7.5030   17.9471 N   0  0  0  0  0  0  0  0  0  0  0  0
    3.5654   -8.8130   18.1409 C   0  0  0  0  0  0  0  0  0  0  0  0
    4.9058  -10.7249   14.9030 H   0  0  0  0  0  0  0  0  0  0  0  0
    4.4047  -12.1774   14.8341 H   0  0  0  0  0  0  0  0  0  0  0  0
    3.4785  -10.7549   14.4103 H   0  0  0  0  0  0  0  0  0  0  0  0
    3.6484  -11.9479   17.5583 H   0  0  0  0  0  0  0  0  0  0  0  0
    0.4564  -13.0815   18.1404 H   0  0  0  0  0  0  0  0  0  0  0  0
   -1.7444  -14.3512   17.9317 H   0  0  0  0  0  0  0  0  0  0  0  0
   -2.1271  -13.1110   17.0504 H   0  0  0  0  0  0  0  0  0  0  0  0
   -6.8186  -14.8847   14.6608 H   0  0  0  0  0  0  0  0  0  0  0  0
   -6.4303  -14.5278   12.9841 H   0  0  0  0  0  0  0  0  0  0  0  0
   -8.6139  -15.5914   13.0745 H   0  0  0  0  0  0  0  0  0  0  0  0
   -7.9993  -16.8916   14.0713 H   0  0  0  0  0  0  0  0  0  0  0  0
   -8.1706  -17.7717   11.8134 H   0  0  0  0  0  0  0  0  0  0  0  0
   -7.4496  -16.3379   11.1220 H   0  0  0  0  0  0  0  0  0  0  0  0
   -5.3825  -17.1635   11.2850 H   0  0  0  0  0  0  0  0  0  0  0  0
   -6.0753  -18.6921   11.7693 H   0  0  0  0  0  0  0  0  0  0  0  0
   -4.3225  -17.9053   13.3354 H   0  0  0  0  0  0  0  0  0  0  0  0
   -5.8432  -18.0663   14.1891 H   0  0  0  0  0  0  0  0  0  0  0  0
    0.6030   -9.0211   17.8952 H   0  0  0  0  0  0  0  0  0  0  0  0
    1.4099   -6.6212   17.4990 H   0  0  0  0  0  0  0  0  0  0  0  0
    4.5864   -9.0171   18.4530 H   0  0  0  0  0  0  0  0  0  0  0  0
  1  2  1  0
  2  3  1  0
  3  4  2  0
  3  5  1  0
  5  6  1  0
  6  7  1  0
  7  8  2  0
  8  9  1  0
  9 10  2  0
 10 11  1  0
 11 12  1  0
 12 13  1  0
 13 14  1  0
 14 15  1  0
 15 16  1  0
 10 17  1  0
  2 18  1  0
 18 19  1  0
 19 20  2  0
 20 21  1  0
 21 22  2  0
 17  7  1  0
 22 18  1  0
 16 11  1  0
  1 23  1  0
  1 24  1  0
  1 25  1  0
  2 26  1  0
  5 27  1  0
  6 28  1  0
  6 29  1  0
 12 30  1  0
 12 31  1  0
 13 32  1  0
 13 33  1  0
 14 34  1  0
 14 35  1  0
 15 36  1  0
 15 37  1  0
 16 38  1  0
 16 39  1  0
 19 40  1  0
 20 41  1  0
 22 42  1  0
M  END
>  <Energy>  (1281) 
491.68434536044998

>  <compound_id>  (1281) 
17777

>  <target_id>  (1281) 
1

>  <reference_id>  (1281) 
63

>  <inspiration_ids>  (1281) 
[63, 9]

>  <energy_score>  (1281) 
466.55039227251086

>  <distance_score>  (1281) 
12.380882556277866

>  <path>  (1281) 
/opt/xchem-fragalysis-2/maxwin/BulkDock/SCRATCH/511014/C17777-P63/C17777-P63.minimised.mol

>  <scratch_subdir>  (1281) 
/opt/xchem-fragalysis-2/maxwin/BulkDock/SCRATCH/511014/C17777-P63

>  <fragmenstein_runtime>  (1281) 
18.750556707382202

>  <fragmenstein_outcome>  (1281) 
too moved

>  <fragmenstein_mode>  (1281) 
expansion

>  <fragmenstein_error>  (1281) 


$$$$
C17777-P9
     RDKit          3D

 42 44  0  0  0  0  0  0  0  0999 V2000
    3.8105  -11.3030   16.1043 C   0  0  0  0  0  0  0  0  0  0  0  0
    3.0556  -11.9099   17.4257 C   0  0  0  0  0  0  0  0  0  0  0  0
    1.9954  -13.8190   17.6564 C   0  0  0  0  0  0  0  0  0  0  0  0
    2.4823  -14.8912   17.9637 O   0  0  0  0  0  0  0  0  0  0  0  0
    0.1805  -13.4498   17.4139 N   0  0  0  0  0  0  0  0  0  0  0  0
   -1.3331  -14.4556   17.6705 C   0  0  0  0  0  0  0  0  0  0  0  0
   -3.0761  -14.7992   16.8650 C   0  0  0  0  0  0  0  0  0  0  0  0
   -4.1305  -14.2215   16.3892 N   0  0  0  0  0  0  0  0  0  0  0  0
   -5.2372  -15.0757   16.1856 N   0  0  0  0  0  0  0  0  0  0  0  0
   -4.8908  -16.2818   16.5346 C   0  0  0  0  0  0  0  0  0  0  0  0
   -5.6545  -17.3524   16.8978 N   0  0  0  0  0  0  0  0  0  0  0  0
   -5.0502  -18.6663   17.0491 C   0  0  0  0  0  0  0  0  0  0  0  0
   -5.7215  -19.5800   18.0794 C   0  0  0  0  0  0  0  0  0  0  0  0
   -6.5073  -18.8105   19.1170 C   0  0  0  0  0  0  0  0  0  0  0  0
   -7.5200  -17.8627   18.4933 C   0  0  0  0  0  0  0  0  0  0  0  0
   -7.0462  -17.1061   17.2448 C   0  0  0  0  0  0  0  0  0  0  0  0
   -3.5527  -16.3049   16.8339 O   0  0  0  0  0  0  0  0  0  0  0  0
    2.5809   -9.9981   17.7698 N   0  0  0  0  0  0  0  0  0  0  0  0
    3.3918   -8.9167   18.0851 C   0  0  0  0  0  0  0  0  0  0  0  0
    2.9054   -7.6034   17.8104 C   0  0  0  0  0  0  0  0  0  0  0  0
    1.6833   -7.6438   17.4202 N   0  0  0  0  0  0  0  0  0  0  0  0
    1.4206   -8.8839   17.7454 C   0  0  0  0  0  0  0  0  0  0  0  0
    3.9250  -10.3312   16.4365 H   0  0  0  0  0  0  0  0  0  0  0  0
    4.5036  -11.8558   15.5319 H   0  0  0  0  0  0  0  0  0  0  0  0
    3.6159  -10.7864   15.1575 H   0  0  0  0  0  0  0  0  0  0  0  0
    2.5289  -11.7975   16.5022 H   0  0  0  0  0  0  0  0  0  0  0  0
    0.0563  -12.5128   17.2573 H   0  0  0  0  0  0  0  0  0  0  0  0
   -1.3554  -15.0182   18.6109 H   0  0  0  0  0  0  0  0  0  0  0  0
   -1.8685  -13.5143   17.9325 H   0  0  0  0  0  0  0  0  0  0  0  0
   -4.0219  -18.5440   17.3529 H   0  0  0  0  0  0  0  0  0  0  0  0
   -4.9563  -19.1543   16.0750 H   0  0  0  0  0  0  0  0  0  0  0  0
   -4.9547  -20.1894   18.5733 H   0  0  0  0  0  0  0  0  0  0  0  0
   -6.3833  -20.3087   17.6136 H   0  0  0  0  0  0  0  0  0  0  0  0
   -5.8094  -18.2387   19.7376 H   0  0  0  0  0  0  0  0  0  0  0  0
   -7.0184  -19.5043   19.7945 H   0  0  0  0  0  0  0  0  0  0  0  0
   -7.8187  -17.1325   19.2572 H   0  0  0  0  0  0  0  0  0  0  0  0
   -8.4436  -18.4062   18.2721 H   0  0  0  0  0  0  0  0  0  0  0  0
   -7.2181  -16.0390   17.4387 H   0  0  0  0  0  0  0  0  0  0  0  0
   -7.6867  -17.3068   16.3833 H   0  0  0  0  0  0  0  0  0  0  0  0
    4.4142   -9.0687   18.4150 H   0  0  0  0  0  0  0  0  0  0  0  0
    3.4579   -6.6721   17.8881 H   0  0  0  0  0  0  0  0  0  0  0  0
    0.3718   -9.0116   17.9261 H   0  0  0  0  0  0  0  0  0  0  0  0
  1  2  1  0
  2  3  1  0
  3  4  2  0
  3  5  1  0
  5  6  1  0
  6  7  1  0
  7  8  2  0
  8  9  1  0
  9 10  2  0
 10 11  1  0
 11 12  1  0
 12 13  1  0
 13 14  1  0
 14 15  1  0
 15 16  1  0
 10 17  1  0
  2 18  1  0
 18 19  1  0
 19 20  2  0
 20 21  1  0
 21 22  2  0
 17  7  1  0
 22 18  1  0
 16 11  1  0
  1 23  1  0
  1 24  1  0
  1 25  1  0
  2 26  1  0
  5 27  1  0
  6 28  1  0
  6 29  1  0
 12 30  1  0
 12 31  1  0
 13 32  1  0
 13 33  1  0
 14 34  1  0
 14 35  1  0
 15 36  1  0
 15 37  1  0
 16 38  1  0
 16 39  1  0
 19 40  1  0
 20 41  1  0
 22 42  1  0
M  END
>  <Energy>  (1282) 
627.74509097478108

>  <compound_id>  (1282) 
17777

>  <target_id>  (1282) 
1

>  <reference_id>  (1282) 
9

>  <inspiration_ids>  (1282) 
[63, 9]

>  <energy_score>  (1282) 
602.6111378868352

>  <distance_score>  (1282) 
12.329492161321795

>  <path>  (1282) 
/opt/xchem-fragalysis-2/maxwin/BulkDock/SCRATCH/511014/C17777-P9/C17777-P9.minimised.mol

>  <scratch_subdir>  (1282) 
/opt/xchem-fragalysis-2/maxwin/BulkDock/SCRATCH/511014/C17777-P9

>  <fragmenstein_runtime>  (1282) 
23.27408480644226

>  <fragmenstein_outcome>  (1282) 
too moved

>  <fragmenstein_mode>  (1282) 
expansion

>  <fragmenstein_error>  (1282) 


$$$$
C17778-P63
     RDKit          3D

 42 44  0  0  0  0  0  0  0  0999 V2000
   -3.2829  -15.5472   15.6197 O   0  0  0  0  0  0  0  0  0  0  0  0
   -2.9634  -15.5218   16.7690 C   0  0  0  0  0  0  0  0  0  0  0  0
   -1.5628  -14.0129   17.0827 C   0  0  0  0  0  0  0  0  0  0  0  0
    0.5588  -13.6600   16.9202 C   0  0  0  0  0  0  0  0  0  0  0  0
    1.7326  -12.5073   15.5818 C   0  0  0  0  0  0  0  0  0  0  0  0
    2.8682  -11.4599   15.7035 C   0  0  0  0  0  0  0  0  0  0  0  0
    3.1168  -10.9006   14.4803 N   0  0  0  0  0  0  0  0  0  0  0  0
    2.2373  -11.4369   13.5997 C   0  0  0  0  0  0  0  0  0  0  0  0
    1.5284  -12.4165   14.1260 N   0  0  0  0  0  0  0  0  0  0  0  0
   -3.5855  -16.8505   17.9763 N   0  0  0  0  0  0  0  0  0  0  0  0
   -4.6560  -18.5155   17.6905 C   0  0  0  0  0  0  0  0  0  0  0  0
   -6.2933  -19.7780   17.4688 C   0  0  0  0  0  0  0  0  0  0  0  0
   -5.9736  -20.4096   16.3623 N   0  0  0  0  0  0  0  0  0  0  0  0
   -6.9216  -20.8632   14.6359 N   0  0  0  0  0  0  0  0  0  0  0  0
   -7.6309  -22.1901   15.2475 C   0  0  0  0  0  0  0  0  0  0  0  0
   -9.0109  -22.8379   14.6324 N   0  0  0  0  0  0  0  0  0  0  0  0
   -9.4480  -22.2351   13.3197 C   0  0  0  0  0  0  0  0  0  0  0  0
  -10.3496  -23.0077   12.3541 C   0  0  0  0  0  0  0  0  0  0  0  0
   -9.6806  -24.2782   11.9372 C   0  0  0  0  0  0  0  0  0  0  0  0
   -9.5400  -25.1060   13.1744 C   0  0  0  0  0  0  0  0  0  0  0  0
   -9.4935  -24.3131   14.5120 C   0  0  0  0  0  0  0  0  0  0  0  0
   -7.1039  -21.3534   16.9523 O   0  0  0  0  0  0  0  0  0  0  0  0
   -2.0915  -13.0712   17.0718 H   0  0  0  0  0  0  0  0  0  0  0  0
   -1.6097  -14.1379   18.1695 H   0  0  0  0  0  0  0  0  0  0  0  0
    1.0196  -13.7533   17.8965 H   0  0  0  0  0  0  0  0  0  0  0  0
    1.0093  -14.5270   16.4852 H   0  0  0  0  0  0  0  0  0  0  0  0
    3.3978  -11.1236   16.5886 H   0  0  0  0  0  0  0  0  0  0  0  0
    3.7864  -10.1711   14.2826 H   0  0  0  0  0  0  0  0  0  0  0  0
    2.1860  -11.1267   12.5647 H   0  0  0  0  0  0  0  0  0  0  0  0
   -3.1420  -16.7099   18.8824 H   0  0  0  0  0  0  0  0  0  0  0  0
   -5.2123  -18.1853   18.6031 H   0  0  0  0  0  0  0  0  0  0  0  0
   -3.9660  -19.1995   18.1976 H   0  0  0  0  0  0  0  0  0  0  0  0
  -10.0723  -21.3682   13.5435 H   0  0  0  0  0  0  0  0  0  0  0  0
   -8.5536  -22.0208   12.7206 H   0  0  0  0  0  0  0  0  0  0  0  0
  -10.5048  -22.3995   11.4594 H   0  0  0  0  0  0  0  0  0  0  0  0
  -11.3362  -23.2076   12.7846 H   0  0  0  0  0  0  0  0  0  0  0  0
  -10.2664  -24.8064   11.1774 H   0  0  0  0  0  0  0  0  0  0  0  0
   -8.6973  -24.0731   11.4993 H   0  0  0  0  0  0  0  0  0  0  0  0
  -10.4149  -25.7717   13.2374 H   0  0  0  0  0  0  0  0  0  0  0  0
   -8.7144  -25.8091   13.0558 H   0  0  0  0  0  0  0  0  0  0  0  0
  -10.5445  -24.2673   14.7274 H   0  0  0  0  0  0  0  0  0  0  0  0
   -9.1583  -25.0676   15.2109 H   0  0  0  0  0  0  0  0  0  0  0  0
  1  2  2  0
  2  3  1  0
  3  4  1  0
  4  5  1  0
  5  6  2  0
  6  7  1  0
  7  8  1  0
  8  9  2  0
  2 10  1  0
 10 11  1  0
 11 12  1  0
 12 13  2  0
 13 14  1  0
 14 15  2  0
 15 16  1  0
 16 17  1  0
 17 18  1  0
 18 19  1  0
 19 20  1  0
 20 21  1  0
 15 22  1  0
  9  5  1  0
 22 12  1  0
 21 16  1  0
  3 23  1  0
  3 24  1  0
  4 25  1  0
  4 26  1  0
  6 27  1  0
  7 28  1  0
  8 29  1  0
 10 30  1  0
 11 31  1  0
 11 32  1  0
 17 33  1  0
 17 34  1  0
 18 35  1  0
 18 36  1  0
 19 37  1  0
 19 38  1  0
 20 39  1  0
 20 40  1  0
 21 41  1  0
 21 42  1  0
M  END
>  <Energy>  (1283) 
1239.5374553824045

>  <compound_id>  (1283) 
17778

>  <target_id>  (1283) 
1

>  <reference_id>  (1283) 
63

>  <inspiration_ids>  (1283) 
[63, 9]

>  <energy_score>  (1283) 
1221.568938618432

>  <distance_score>  (1283) 
10.607292191501477

>  <path>  (1283) 
/opt/xchem-fragalysis-2/maxwin/BulkDock/SCRATCH/511014/C17778-P63/C17778-P63.minimised.mol

>  <scratch_subdir>  (1283) 
/opt/xchem-fragalysis-2/maxwin/BulkDock/SCRATCH/511014/C17778-P63

>  <fragmenstein_runtime>  (1283) 
18.31659436225891

>  <fragmenstein_outcome>  (1283) 
too moved

>  <fragmenstein_mode>  (1283) 
expansion

>  <fragmenstein_error>  (1283) 


$$$$
C17778-P9
     RDKit          3D

 42 44  0  0  0  0  0  0  0  0999 V2000
    2.6687  -18.8405   17.2040 O   0  0  0  0  0  0  0  0  0  0  0  0
    3.0875  -19.7573   16.5497 C   0  0  0  0  0  0  0  0  0  0  0  0
    4.2307  -19.3850   15.4828 C   0  0  0  0  0  0  0  0  0  0  0  0
    4.5920  -17.8342   15.4311 C   0  0  0  0  0  0  0  0  0  0  0  0
    5.8249  -17.3216   14.6774 C   0  0  0  0  0  0  0  0  0  0  0  0
    5.9975  -17.1015   13.3222 C   0  0  0  0  0  0  0  0  0  0  0  0
    7.1596  -16.3854   13.1795 N   0  0  0  0  0  0  0  0  0  0  0  0
    7.6910  -16.2230   14.4226 C   0  0  0  0  0  0  0  0  0  0  0  0
    6.9107  -16.7580   15.3370 N   0  0  0  0  0  0  0  0  0  0  0  0
    2.7976  -21.1969   16.6258 N   0  0  0  0  0  0  0  0  0  0  0  0
    1.9740  -21.9776   17.5982 C   0  0  0  0  0  0  0  0  0  0  0  0
    1.2356  -23.2618   17.2190 C   0  0  0  0  0  0  0  0  0  0  0  0
    1.7234  -24.3997   16.7562 N   0  0  0  0  0  0  0  0  0  0  0  0
    0.6615  -25.3086   16.6986 N   0  0  0  0  0  0  0  0  0  0  0  0
   -0.4155  -24.6991   17.1509 C   0  0  0  0  0  0  0  0  0  0  0  0
   -1.7182  -25.1253   17.1663 N   0  0  0  0  0  0  0  0  0  0  0  0
   -2.0039  -26.1543   18.1795 C   0  0  0  0  0  0  0  0  0  0  0  0
   -3.4528  -26.6334   18.1003 C   0  0  0  0  0  0  0  0  0  0  0  0
   -3.7448  -27.3133   16.7670 C   0  0  0  0  0  0  0  0  0  0  0  0
   -2.8080  -26.8457   15.6606 C   0  0  0  0  0  0  0  0  0  0  0  0
   -2.2766  -25.4228   15.8315 C   0  0  0  0  0  0  0  0  0  0  0  0
   -0.1238  -23.3987   17.5324 O   0  0  0  0  0  0  0  0  0  0  0  0
    3.8946  -19.7141   14.4938 H   0  0  0  0  0  0  0  0  0  0  0  0
    5.1284  -19.9511   15.7545 H   0  0  0  0  0  0  0  0  0  0  0  0
    4.6452  -17.4354   16.4414 H   0  0  0  0  0  0  0  0  0  0  0  0
    3.7173  -17.3399   15.0060 H   0  0  0  0  0  0  0  0  0  0  0  0
    5.3628  -17.3351   12.4767 H   0  0  0  0  0  0  0  0  0  0  0  0
    7.5613  -16.0700   12.3070 H   0  0  0  0  0  0  0  0  0  0  0  0
    8.6298  -15.7166   14.6026 H   0  0  0  0  0  0  0  0  0  0  0  0
    3.3929  -21.6893   15.9727 H   0  0  0  0  0  0  0  0  0  0  0  0
    1.2865  -21.2675   18.0538 H   0  0  0  0  0  0  0  0  0  0  0  0
    2.6807  -22.2518   18.3914 H   0  0  0  0  0  0  0  0  0  0  0  0
   -1.8259  -25.7488   19.1795 H   0  0  0  0  0  0  0  0  0  0  0  0
   -1.3266  -27.0113   18.0599 H   0  0  0  0  0  0  0  0  0  0  0  0
   -4.1158  -25.7807   18.2639 H   0  0  0  0  0  0  0  0  0  0  0  0
   -3.6576  -27.3362   18.9165 H   0  0  0  0  0  0  0  0  0  0  0  0
   -3.6206  -28.3979   16.8824 H   0  0  0  0  0  0  0  0  0  0  0  0
   -4.7915  -27.1795   16.4815 H   0  0  0  0  0  0  0  0  0  0  0  0
   -1.9465  -27.5269   15.6327 H   0  0  0  0  0  0  0  0  0  0  0  0
   -3.3014  -26.9487   14.6873 H   0  0  0  0  0  0  0  0  0  0  0  0
   -3.0599  -24.6925   15.6402 H   0  0  0  0  0  0  0  0  0  0  0  0
   -1.5285  -25.2690   15.0458 H   0  0  0  0  0  0  0  0  0  0  0  0
  1  2  2  0
  2  3  1  0
  3  4  1  0
  4  5  1  0
  5  6  2  0
  6  7  1  0
  7  8  1  0
  8  9  2  0
  2 10  1  0
 10 11  1  0
 11 12  1  0
 12 13  2  0
 13 14  1  0
 14 15  2  0
 15 16  1  0
 16 17  1  0
 17 18  1  0
 18 19  1  0
 19 20  1  0
 20 21  1  0
 15 22  1  0
  9  5  1  0
 22 12  1  0
 21 16  1  0
  3 23  1  0
  3 24  1  0
  4 25  1  0
  4 26  1  0
  6 27  1  0
  7 28  1  0
  8 29  1  0
 10 30  1  0
 11 31  1  0
 11 32  1  0
 17 33  1  0
 17 34  1  0
 18 35  1  0
 18 36  1  0
 19 37  1  0
 19 38  1  0
 20 39  1  0
 20 40  1  0
 21 41  1  0
 21 42  1  0
M  END
>  <Energy>  (1284) 
-4.8957443712487692

>  <compound_id>  (1284) 
17778

>  <target_id>  (1284) 
1

>  <reference_id>  (1284) 
9

>  <inspiration_ids>  (1284) 
[63, 9]

>  <energy_score>  (1284) 
-22.86426113522623

>  <distance_score>  (1284) 
13.665589166625141

>  <path>  (1284) 
/opt/xchem-fragalysis-2/maxwin/BulkDock/SCRATCH/511014/C17778-P9/C17778-P9.minimised.mol

>  <scratch_subdir>  (1284) 
/opt/xchem-fragalysis-2/maxwin/BulkDock/SCRATCH/511014/C17778-P9

>  <fragmenstein_runtime>  (1284) 
23.56697964668274

>  <fragmenstein_outcome>  (1284) 
too moved

>  <fragmenstein_mode>  (1284) 
expansion

>  <fragmenstein_error>  (1284) 


$$$$
C17782-P63
     RDKit          3D

 49 50  0  0  0  0  0  0  0  0999 V2000
   -2.8433  -14.4152   17.3641 C   0  0  0  0  0  0  0  0  0  0  0  0
   -4.2371  -14.9033   16.9880 C   0  0  0  0  0  0  0  0  0  0  0  0
   -4.4100  -16.1940   16.2155 C   0  0  0  0  0  0  0  0  0  0  0  0
   -4.6654  -17.4277   16.7679 C   0  0  0  0  0  0  0  0  0  0  0  0
   -4.7849  -18.4053   15.8247 N   0  0  0  0  0  0  0  0  0  0  0  0
   -4.7018  -17.8426   14.6336 C   0  0  0  0  0  0  0  0  0  0  0  0
   -4.6796  -18.7229   13.3325 C   0  0  0  0  0  0  0  0  0  0  0  0
   -6.0329  -19.2017   12.5994 C   0  0  0  0  0  0  0  0  0  0  0  0
   -6.5523  -18.4116   11.8326 O   0  0  0  0  0  0  0  0  0  0  0  0
   -6.4811  -20.6700   13.0199 N   0  0  0  0  0  0  0  0  0  0  0  0
   -7.8160  -21.6987   12.4281 C   0  0  0  0  0  0  0  0  0  0  0  0
   -9.1480  -22.6343   13.0218 C   0  0  0  0  0  0  0  0  0  0  0  0
   -9.1861  -22.6393   14.5246 C   0  0  0  0  0  0  0  0  0  0  0  0
  -10.3673  -21.9463   12.4538 C   0  0  0  0  0  0  0  0  0  0  0  0
   -9.3234  -24.1177   12.6068 N   0  0  0  0  0  0  0  0  0  0  0  0
   -8.7898  -24.5084   11.3119 C   0  0  0  0  0  0  0  0  0  0  0  0
   -8.7941  -26.0258   11.0718 C   0  0  0  0  0  0  0  0  0  0  0  0
  -10.1359  -26.6727   11.3605 C   0  0  0  0  0  0  0  0  0  0  0  0
  -10.6080  -26.2533   12.7393 C   0  0  0  0  0  0  0  0  0  0  0  0
  -10.6479  -24.7305   12.8275 C   0  0  0  0  0  0  0  0  0  0  0  0
   -4.4014  -16.4659   14.8331 N   0  0  0  0  0  0  0  0  0  0  0  0
   -2.8768  -13.4170   17.8072 H   0  0  0  0  0  0  0  0  0  0  0  0
   -2.1835  -14.4103   16.5046 H   0  0  0  0  0  0  0  0  0  0  0  0
   -2.4344  -15.0587   18.1473 H   0  0  0  0  0  0  0  0  0  0  0  0
   -4.8652  -14.1588   16.5248 H   0  0  0  0  0  0  0  0  0  0  0  0
   -4.7519  -15.0581   17.9497 H   0  0  0  0  0  0  0  0  0  0  0  0
   -4.7590  -17.6687   17.8189 H   0  0  0  0  0  0  0  0  0  0  0  0
   -4.0887  -19.6192   13.5544 H   0  0  0  0  0  0  0  0  0  0  0  0
   -4.1243  -18.1740   12.5667 H   0  0  0  0  0  0  0  0  0  0  0  0
   -5.7900  -21.0710   13.5999 H   0  0  0  0  0  0  0  0  0  0  0  0
   -7.2205  -22.5813   12.2133 H   0  0  0  0  0  0  0  0  0  0  0  0
   -8.2341  -21.1269   11.5913 H   0  0  0  0  0  0  0  0  0  0  0  0
   -9.6633  -23.5208   14.9271 H   0  0  0  0  0  0  0  0  0  0  0  0
   -8.1840  -22.6389   14.9163 H   0  0  0  0  0  0  0  0  0  0  0  0
   -9.6842  -21.7652   14.9181 H   0  0  0  0  0  0  0  0  0  0  0  0
  -10.3140  -22.0020   11.3626 H   0  0  0  0  0  0  0  0  0  0  0  0
  -10.4077  -20.9010   12.7615 H   0  0  0  0  0  0  0  0  0  0  0  0
  -11.3068  -22.4020   12.7478 H   0  0  0  0  0  0  0  0  0  0  0  0
   -7.7378  -24.2424   11.2775 H   0  0  0  0  0  0  0  0  0  0  0  0
   -9.3203  -24.0027   10.4979 H   0  0  0  0  0  0  0  0  0  0  0  0
   -8.0333  -26.4908   11.7122 H   0  0  0  0  0  0  0  0  0  0  0  0
   -8.4970  -26.2324   10.0370 H   0  0  0  0  0  0  0  0  0  0  0  0
  -10.0505  -27.7633   11.3036 H   0  0  0  0  0  0  0  0  0  0  0  0
  -10.8672  -26.3648   10.6035 H   0  0  0  0  0  0  0  0  0  0  0  0
  -11.6072  -26.6625   12.9274 H   0  0  0  0  0  0  0  0  0  0  0  0
   -9.9420  -26.6587   13.5112 H   0  0  0  0  0  0  0  0  0  0  0  0
  -11.0478  -24.4915   13.8095 H   0  0  0  0  0  0  0  0  0  0  0  0
  -11.3718  -24.3722   12.0844 H   0  0  0  0  0  0  0  0  0  0  0  0
   -4.1772  -15.8025   14.1029 H   0  0  0  0  0  0  0  0  0  0  0  0
  1  2  1  0
  2  3  1  0
  3  4  2  0
  4  5  1  0
  5  6  2  0
  6  7  1  0
  7  8  1  0
  8  9  2  0
  8 10  1  0
 10 11  1  0
 11 12  1  0
 12 13  1  0
 12 14  1  0
 12 15  1  0
 15 16  1  0
 16 17  1  0
 17 18  1  0
 18 19  1  0
 19 20  1  0
  6 21  1  0
 21  3  1  0
 20 15  1  0
  1 22  1  0
  1 23  1  0
  1 24  1  0
  2 25  1  0
  2 26  1  0
  4 27  1  0
  7 28  1  0
  7 29  1  0
 10 30  1  0
 11 31  1  0
 11 32  1  0
 13 33  1  0
 13 34  1  0
 13 35  1  0
 14 36  1  0
 14 37  1  0
 14 38  1  0
 16 39  1  0
 16 40  1  0
 17 41  1  0
 17 42  1  0
 18 43  1  0
 18 44  1  0
 19 45  1  0
 19 46  1  0
 20 47  1  0
 20 48  1  0
 21 49  1  0
M  END
>  <Energy>  (1285) 
144.06075521615401

>  <compound_id>  (1285) 
17782

>  <target_id>  (1285) 
1

>  <reference_id>  (1285) 
63

>  <inspiration_ids>  (1285) 
[63, 9]

>  <energy_score>  (1285) 
49.595400271237224

>  <distance_score>  (1285) 
14.341150325874045

>  <path>  (1285) 
/opt/xchem-fragalysis-2/maxwin/BulkDock/SCRATCH/511014/C17782-P63/C17782-P63.minimised.mol

>  <scratch_subdir>  (1285) 
/opt/xchem-fragalysis-2/maxwin/BulkDock/SCRATCH/511014/C17782-P63

>  <fragmenstein_runtime>  (1285) 
28.898608207702637

>  <fragmenstein_outcome>  (1285) 
too moved

>  <fragmenstein_mode>  (1285) 
expansion

>  <fragmenstein_error>  (1285) 


$$$$
C17782-P9
     RDKit          3D

 49 50  0  0  0  0  0  0  0  0999 V2000
    3.8590  -10.0587   13.0033 C   0  0  0  0  0  0  0  0  0  0  0  0
    2.5140  -10.5717   11.5438 C   0  0  0  0  0  0  0  0  0  0  0  0
    0.9962  -11.8107   11.5055 C   0  0  0  0  0  0  0  0  0  0  0  0
   -0.1803  -11.8017   12.2114 C   0  0  0  0  0  0  0  0  0  0  0  0
   -0.5111  -13.0796   12.7542 N   0  0  0  0  0  0  0  0  0  0  0  0
   -0.4742  -13.8970   11.7192 C   0  0  0  0  0  0  0  0  0  0  0  0
   -1.6921  -15.1077   10.9516 C   0  0  0  0  0  0  0  0  0  0  0  0
   -3.5096  -15.5525   11.2980 C   0  0  0  0  0  0  0  0  0  0  0  0
   -4.1719  -14.6646   11.7713 O   0  0  0  0  0  0  0  0  0  0  0  0
   -3.8699  -17.0143   11.0295 N   0  0  0  0  0  0  0  0  0  0  0  0
   -5.1549  -17.8265   11.3830 C   0  0  0  0  0  0  0  0  0  0  0  0
   -5.8618  -19.0482   10.5467 C   0  0  0  0  0  0  0  0  0  0  0  0
   -6.7849  -18.3484    9.5336 C   0  0  0  0  0  0  0  0  0  0  0  0
   -4.7635  -19.7726    9.7576 C   0  0  0  0  0  0  0  0  0  0  0  0
   -6.6639  -20.1601   11.2128 N   0  0  0  0  0  0  0  0  0  0  0  0
   -8.1215  -20.0440   11.4199 C   0  0  0  0  0  0  0  0  0  0  0  0
   -8.9130  -21.2787   12.1063 C   0  0  0  0  0  0  0  0  0  0  0  0
   -8.0959  -22.3068   12.8171 C   0  0  0  0  0  0  0  0  0  0  0  0
   -6.6935  -22.4130   12.2618 C   0  0  0  0  0  0  0  0  0  0  0  0
   -6.0004  -21.0248   12.1797 C   0  0  0  0  0  0  0  0  0  0  0  0
    0.9000  -13.4289   11.5493 N   0  0  0  0  0  0  0  0  0  0  0  0
    3.5500  -10.3395   14.0196 H   0  0  0  0  0  0  0  0  0  0  0  0
    4.0330   -8.9859   13.1365 H   0  0  0  0  0  0  0  0  0  0  0  0
    4.8966  -10.5059   13.0376 H   0  0  0  0  0  0  0  0  0  0  0  0
    3.0895  -11.1804   10.8359 H   0  0  0  0  0  0  0  0  0  0  0  0
    1.8906  -10.6969   12.4020 H   0  0  0  0  0  0  0  0  0  0  0  0
   -0.7639  -10.9560   12.5093 H   0  0  0  0  0  0  0  0  0  0  0  0
   -1.9904  -14.5985   10.0756 H   0  0  0  0  0  0  0  0  0  0  0  0
   -1.1187  -16.0127   10.7227 H   0  0  0  0  0  0  0  0  0  0  0  0
   -3.1019  -17.4639   10.5453 H   0  0  0  0  0  0  0  0  0  0  0  0
   -4.8647  -18.2739   12.3428 H   0  0  0  0  0  0  0  0  0  0  0  0
   -5.9149  -17.0769   11.6355 H   0  0  0  0  0  0  0  0  0  0  0  0
   -6.2217  -17.6146    8.9430 H   0  0  0  0  0  0  0  0  0  0  0  0
   -7.2271  -19.0424    8.8144 H   0  0  0  0  0  0  0  0  0  0  0  0
   -7.5928  -17.7953   10.0256 H   0  0  0  0  0  0  0  0  0  0  0  0
   -5.1467  -20.6405    9.2088 H   0  0  0  0  0  0  0  0  0  0  0  0
   -4.3158  -19.1063    9.0098 H   0  0  0  0  0  0  0  0  0  0  0  0
   -3.9428  -20.1083   10.4000 H   0  0  0  0  0  0  0  0  0  0  0  0
   -8.5688  -19.9083   10.4296 H   0  0  0  0  0  0  0  0  0  0  0  0
   -8.3589  -19.1074   11.9259 H   0  0  0  0  0  0  0  0  0  0  0  0
   -9.5421  -21.8336   11.4066 H   0  0  0  0  0  0  0  0  0  0  0  0
   -9.7382  -20.9819   12.7671 H   0  0  0  0  0  0  0  0  0  0  0  0
   -8.0526  -22.0985   13.8870 H   0  0  0  0  0  0  0  0  0  0  0  0
   -8.6397  -23.2601   12.7399 H   0  0  0  0  0  0  0  0  0  0  0  0
   -6.2926  -23.2604   12.7725 H   0  0  0  0  0  0  0  0  0  0  0  0
   -6.4566  -22.9788   11.3566 H   0  0  0  0  0  0  0  0  0  0  0  0
   -5.9756  -20.5116   13.1406 H   0  0  0  0  0  0  0  0  0  0  0  0
   -4.9655  -21.1894   11.8722 H   0  0  0  0  0  0  0  0  0  0  0  0
    1.4257  -13.7877   12.3156 H   0  0  0  0  0  0  0  0  0  0  0  0
  1  2  1  0
  2  3  1  0
  3  4  2  0
  4  5  1  0
  5  6  2  0
  6  7  1  0
  7  8  1  0
  8  9  2  0
  8 10  1  0
 10 11  1  0
 11 12  1  0
 12 13  1  0
 12 14  1  0
 12 15  1  0
 15 16  1  0
 16 17  1  0
 17 18  1  0
 18 19  1  0
 19 20  1  0
  6 21  1  0
 21  3  1  0
 20 15  1  0
  1 22  1  0
  1 23  1  0
  1 24  1  0
  2 25  1  0
  2 26  1  0
  4 27  1  0
  7 28  1  0
  7 29  1  0
 10 30  1  0
 11 31  1  0
 11 32  1  0
 13 33  1  0
 13 34  1  0
 13 35  1  0
 14 36  1  0
 14 37  1  0
 14 38  1  0
 16 39  1  0
 16 40  1  0
 17 41  1  0
 17 42  1  0
 18 43  1  0
 18 44  1  0
 19 45  1  0
 19 46  1  0
 20 47  1  0
 20 48  1  0
 21 49  1  0
M  END
>  <Energy>  (1286) 
467.48192879765031

>  <compound_id>  (1286) 
17782

>  <target_id>  (1286) 
1

>  <reference_id>  (1286) 
9

>  <inspiration_ids>  (1286) 
[63, 9]

>  <energy_score>  (1286) 
373.0165738527251

>  <distance_score>  (1286) 
12.704796473316552

>  <path>  (1286) 
/opt/xchem-fragalysis-2/maxwin/BulkDock/SCRATCH/511014/C17782-P9/C17782-P9.minimised.mol

>  <scratch_subdir>  (1286) 
/opt/xchem-fragalysis-2/maxwin/BulkDock/SCRATCH/511014/C17782-P9

>  <fragmenstein_runtime>  (1286) 
20.6954448223114

>  <fragmenstein_outcome>  (1286) 
too moved

>  <fragmenstein_mode>  (1286) 
expansion

>  <fragmenstein_error>  (1286) 


$$$$
C17783-P63
     RDKit          3D

 45 46  0  0  0  0  0  0  0  0999 V2000
    3.0727  -19.9690   16.1304 C   0  0  0  0  0  0  0  0  0  0  0  0
    1.9938  -18.9664   16.5156 C   0  0  0  0  0  0  0  0  0  0  0  0
    2.2236  -17.2218   16.5836 C   0  0  0  0  0  0  0  0  0  0  0  0
    2.7708  -15.6700   17.2958 N   0  0  0  0  0  0  0  0  0  0  0  0
    3.8283  -15.2441   18.0637 C   0  0  0  0  0  0  0  0  0  0  0  0
    3.6171  -13.9942   18.4853 C   0  0  0  0  0  0  0  0  0  0  0  0
    2.3525  -13.7257   18.1866 N   0  0  0  0  0  0  0  0  0  0  0  0
    1.9564  -14.5743   17.3711 C   0  0  0  0  0  0  0  0  0  0  0  0
    0.8502  -19.6124   17.2762 C   0  0  0  0  0  0  0  0  0  0  0  0
    0.5225  -19.0265   18.7342 O   0  0  0  0  0  0  0  0  0  0  0  0
    0.0563  -20.3337   17.1314 N   0  0  0  0  0  0  0  0  0  0  0  0
   -1.2747  -20.8945   17.7748 C   0  0  0  0  0  0  0  0  0  0  0  0
   -1.7185  -22.3175   17.3988 C   0  0  0  0  0  0  0  0  0  0  0  0
   -2.3249  -19.7462   17.4579 C   0  0  0  0  0  0  0  0  0  0  0  0
   -2.3355  -18.8109   18.2207 O   0  0  0  0  0  0  0  0  0  0  0  0
   -3.0503  -19.9596   16.2290 N   0  0  0  0  0  0  0  0  0  0  0  0
   -2.2614  -19.4591   15.0704 C   0  0  0  0  0  0  0  0  0  0  0  0
   -2.4123  -20.3378   13.8252 C   0  0  0  0  0  0  0  0  0  0  0  0
   -3.7131  -20.0072   13.1488 C   0  0  0  0  0  0  0  0  0  0  0  0
   -4.5360  -19.1209   14.0547 C   0  0  0  0  0  0  0  0  0  0  0  0
   -4.1394  -19.1276   15.5641 C   0  0  0  0  0  0  0  0  0  0  0  0
    3.8691  -19.5112   15.5389 H   0  0  0  0  0  0  0  0  0  0  0  0
    3.4626  -20.5015   16.9987 H   0  0  0  0  0  0  0  0  0  0  0  0
    2.6425  -20.7589   15.4989 H   0  0  0  0  0  0  0  0  0  0  0  0
    1.4736  -18.9768   15.5443 H   0  0  0  0  0  0  0  0  0  0  0  0
    3.0928  -17.2267   15.9086 H   0  0  0  0  0  0  0  0  0  0  0  0
    2.0374  -17.4280   17.6355 H   0  0  0  0  0  0  0  0  0  0  0  0
    4.6251  -15.8164   18.4689 H   0  0  0  0  0  0  0  0  0  0  0  0
    4.2329  -13.3384   19.0954 H   0  0  0  0  0  0  0  0  0  0  0  0
    1.1329  -14.3242   16.7354 H   0  0  0  0  0  0  0  0  0  0  0  0
   -0.4770  -20.9814   16.6123 H   0  0  0  0  0  0  0  0  0  0  0  0
   -1.1140  -20.8721   18.8610 H   0  0  0  0  0  0  0  0  0  0  0  0
   -0.9508  -23.0419   17.6888 H   0  0  0  0  0  0  0  0  0  0  0  0
   -2.6517  -22.5719   17.9116 H   0  0  0  0  0  0  0  0  0  0  0  0
   -1.8914  -22.4301   16.3234 H   0  0  0  0  0  0  0  0  0  0  0  0
   -2.3543  -18.4032   14.8433 H   0  0  0  0  0  0  0  0  0  0  0  0
   -1.2065  -19.5556   15.3193 H   0  0  0  0  0  0  0  0  0  0  0  0
   -1.5845  -20.1491   13.1314 H   0  0  0  0  0  0  0  0  0  0  0  0
   -2.3550  -21.3975   14.0918 H   0  0  0  0  0  0  0  0  0  0  0  0
   -3.5286  -19.4871   12.2008 H   0  0  0  0  0  0  0  0  0  0  0  0
   -4.2367  -20.9211   12.8758 H   0  0  0  0  0  0  0  0  0  0  0  0
   -5.5890  -19.3357   13.9150 H   0  0  0  0  0  0  0  0  0  0  0  0
   -4.4350  -18.0837   13.7036 H   0  0  0  0  0  0  0  0  0  0  0  0
   -5.0138  -19.3941   16.1645 H   0  0  0  0  0  0  0  0  0  0  0  0
   -4.0338  -18.0818   15.9034 H   0  0  0  0  0  0  0  0  0  0  0  0
  1  2  1  0
  2  3  1  0
  3  4  1  0
  4  5  1  0
  5  6  2  0
  6  7  1  0
  7  8  2  0
  2  9  1  0
  9 10  2  0
  9 11  1  0
 11 12  1  0
 12 13  1  0
 12 14  1  0
 14 15  2  0
 14 16  1  0
 16 17  1  0
 17 18  1  0
 18 19  1  0
 19 20  1  0
 20 21  1  0
  8  4  1  0
 21 16  1  0
  1 22  1  0
  1 23  1  0
  1 24  1  0
  2 25  1  0
  3 26  1  0
  3 27  1  0
  5 28  1  0
  6 29  1  0
  8 30  1  0
 11 31  1  0
 12 32  1  0
 13 33  1  0
 13 34  1  0
 13 35  1  0
 17 36  1  0
 17 37  1  0
 18 38  1  0
 18 39  1  0
 19 40  1  0
 19 41  1  0
 20 42  1  0
 20 43  1  0
 21 44  1  0
 21 45  1  0
M  END
>  <Energy>  (1287) 
462.75393909077246

>  <compound_id>  (1287) 
17783

>  <target_id>  (1287) 
1

>  <reference_id>  (1287) 
63

>  <inspiration_ids>  (1287) 
[63, 9]

>  <energy_score>  (1287) 
425.14002932301014

>  <distance_score>  (1287) 
13.429845284583148

>  <path>  (1287) 
/opt/xchem-fragalysis-2/maxwin/BulkDock/SCRATCH/511014/C17783-P63/C17783-P63.minimised.mol

>  <scratch_subdir>  (1287) 
/opt/xchem-fragalysis-2/maxwin/BulkDock/SCRATCH/511014/C17783-P63

>  <fragmenstein_runtime>  (1287) 
26.64016079902649

>  <fragmenstein_outcome>  (1287) 
too moved

>  <fragmenstein_mode>  (1287) 
expansion

>  <fragmenstein_error>  (1287) 


$$$$
C17783-P9
     RDKit          3D

 45 46  0  0  0  0  0  0  0  0999 V2000
   -2.7097  -14.1252   16.6187 C   0  0  0  0  0  0  0  0  0  0  0  0
   -2.5617  -14.8429   14.8267 C   0  0  0  0  0  0  0  0  0  0  0  0
   -1.0522  -13.7972   13.7904 C   0  0  0  0  0  0  0  0  0  0  0  0
   -0.1165  -13.3598   12.3633 N   0  0  0  0  0  0  0  0  0  0  0  0
    0.0699  -12.0739   11.8757 C   0  0  0  0  0  0  0  0  0  0  0  0
    0.6767  -12.1617   10.6503 C   0  0  0  0  0  0  0  0  0  0  0  0
    0.7817  -13.4697   10.2990 N   0  0  0  0  0  0  0  0  0  0  0  0
    0.3318  -14.1619   11.3279 C   0  0  0  0  0  0  0  0  0  0  0  0
   -3.7212  -16.4253   14.6204 C   0  0  0  0  0  0  0  0  0  0  0  0
   -3.8541  -17.2117   15.5168 O   0  0  0  0  0  0  0  0  0  0  0  0
   -4.3570  -16.3771   13.2775 N   0  0  0  0  0  0  0  0  0  0  0  0
   -5.2488  -17.3108   12.6123 C   0  0  0  0  0  0  0  0  0  0  0  0
   -6.6536  -16.7480   12.4802 C   0  0  0  0  0  0  0  0  0  0  0  0
   -4.6208  -17.4289   11.1816 C   0  0  0  0  0  0  0  0  0  0  0  0
   -4.0876  -16.4607   10.6971 O   0  0  0  0  0  0  0  0  0  0  0  0
   -4.7324  -18.7609   10.6978 N   0  0  0  0  0  0  0  0  0  0  0  0
   -3.5601  -19.6032   11.1996 C   0  0  0  0  0  0  0  0  0  0  0  0
   -3.9074  -21.0862   11.3700 C   0  0  0  0  0  0  0  0  0  0  0  0
   -4.0139  -21.7534   10.0234 C   0  0  0  0  0  0  0  0  0  0  0  0
   -4.7843  -20.8011    9.1487 C   0  0  0  0  0  0  0  0  0  0  0  0
   -4.3219  -19.3668    9.3796 C   0  0  0  0  0  0  0  0  0  0  0  0
   -3.7248  -14.2554   16.8183 H   0  0  0  0  0  0  0  0  0  0  0  0
   -2.2588  -13.1700   16.8290 H   0  0  0  0  0  0  0  0  0  0  0  0
   -2.2206  -14.6231   17.4646 H   0  0  0  0  0  0  0  0  0  0  0  0
   -1.8922  -15.6952   14.7562 H   0  0  0  0  0  0  0  0  0  0  0  0
   -1.1017  -12.7418   13.7914 H   0  0  0  0  0  0  0  0  0  0  0  0
   -0.8858  -14.5291   12.9966 H   0  0  0  0  0  0  0  0  0  0  0  0
   -0.4025  -11.2315   12.3270 H   0  0  0  0  0  0  0  0  0  0  0  0
    0.9496  -11.3627    9.9748 H   0  0  0  0  0  0  0  0  0  0  0  0
    0.2915  -15.2423   11.3576 H   0  0  0  0  0  0  0  0  0  0  0  0
   -3.9466  -15.6111   12.7396 H   0  0  0  0  0  0  0  0  0  0  0  0
   -5.2400  -18.2615   13.1510 H   0  0  0  0  0  0  0  0  0  0  0  0
   -7.1169  -16.6132   13.4621 H   0  0  0  0  0  0  0  0  0  0  0  0
   -7.2880  -17.4148   11.8869 H   0  0  0  0  0  0  0  0  0  0  0  0
   -6.6483  -15.7714   11.9821 H   0  0  0  0  0  0  0  0  0  0  0  0
   -3.3982  -19.2587   12.2326 H   0  0  0  0  0  0  0  0  0  0  0  0
   -2.5720  -19.3908   10.7562 H   0  0  0  0  0  0  0  0  0  0  0  0
   -3.1469  -21.5852   11.9783 H   0  0  0  0  0  0  0  0  0  0  0  0
   -4.8759  -21.1462   11.8757 H   0  0  0  0  0  0  0  0  0  0  0  0
   -4.5040  -22.7295   10.0922 H   0  0  0  0  0  0  0  0  0  0  0  0
   -3.0120  -21.9116    9.6070 H   0  0  0  0  0  0  0  0  0  0  0  0
   -4.7008  -21.0823    8.0945 H   0  0  0  0  0  0  0  0  0  0  0  0
   -5.8269  -20.8288    9.4381 H   0  0  0  0  0  0  0  0  0  0  0  0
   -3.3053  -19.1280    9.0241 H   0  0  0  0  0  0  0  0  0  0  0  0
   -4.9207  -18.7658    8.6763 H   0  0  0  0  0  0  0  0  0  0  0  0
  1  2  1  0
  2  3  1  0
  3  4  1  0
  4  5  1  0
  5  6  2  0
  6  7  1  0
  7  8  2  0
  2  9  1  0
  9 10  2  0
  9 11  1  0
 11 12  1  0
 12 13  1  0
 12 14  1  0
 14 15  2  0
 14 16  1  0
 16 17  1  0
 17 18  1  0
 18 19  1  0
 19 20  1  0
 20 21  1  0
  8  4  1  0
 21 16  1  0
  1 22  1  0
  1 23  1  0
  1 24  1  0
  2 25  1  0
  3 26  1  0
  3 27  1  0
  5 28  1  0
  6 29  1  0
  8 30  1  0
 11 31  1  0
 12 32  1  0
 13 33  1  0
 13 34  1  0
 13 35  1  0
 17 36  1  0
 17 37  1  0
 18 38  1  0
 18 39  1  0
 19 40  1  0
 19 41  1  0
 20 42  1  0
 20 43  1  0
 21 44  1  0
 21 45  1  0
M  END
>  <Energy>  (1288) 
408.72685928722007

>  <compound_id>  (1288) 
17783

>  <target_id>  (1288) 
1

>  <reference_id>  (1288) 
9

>  <inspiration_ids>  (1288) 
[63, 9]

>  <energy_score>  (1288) 
371.1129495194487

>  <distance_score>  (1288) 
13.952657401568837

>  <path>  (1288) 
/opt/xchem-fragalysis-2/maxwin/BulkDock/SCRATCH/511014/C17783-P9/C17783-P9.minimised.mol

>  <scratch_subdir>  (1288) 
/opt/xchem-fragalysis-2/maxwin/BulkDock/SCRATCH/511014/C17783-P9

>  <fragmenstein_runtime>  (1288) 
38.325772762298584

>  <fragmenstein_outcome>  (1288) 
too moved

>  <fragmenstein_mode>  (1288) 
expansion

>  <fragmenstein_error>  (1288) 


$$$$
C17786-P63
     RDKit          3D

 46 47  0  0  0  0  0  0  0  0999 V2000
   -4.4251  -21.3464   20.9988 C   0  0  0  0  0  0  0  0  0  0  0  0
   -4.8941  -20.0368   21.6235 C   0  0  0  0  0  0  0  0  0  0  0  0
   -3.8714  -18.9300   21.3725 C   0  0  0  0  0  0  0  0  0  0  0  0
   -3.6613  -18.3792   20.0571 N   0  0  0  0  0  0  0  0  0  0  0  0
   -4.4473  -18.5301   18.9577 C   0  0  0  0  0  0  0  0  0  0  0  0
   -3.9935  -17.6108   18.0626 C   0  0  0  0  0  0  0  0  0  0  0  0
   -2.8763  -16.9823   18.5651 N   0  0  0  0  0  0  0  0  0  0  0  0
   -2.6628  -17.5094   19.7345 C   0  0  0  0  0  0  0  0  0  0  0  0
   -6.2697  -19.6651   21.3202 N   0  0  0  0  0  0  0  0  0  0  0  0
   -7.5082  -20.0049   21.9778 C   0  0  0  0  0  0  0  0  0  0  0  0
   -7.7269  -20.7442   22.8955 O   0  0  0  0  0  0  0  0  0  0  0  0
   -8.7508  -19.1924   21.3199 C   0  0  0  0  0  0  0  0  0  0  0  0
   -8.5115  -17.6976   21.5640 C   0  0  0  0  0  0  0  0  0  0  0  0
   -8.9056  -19.3334   19.7907 C   0  0  0  0  0  0  0  0  0  0  0  0
  -10.0499  -19.6084   21.9350 N   0  0  0  0  0  0  0  0  0  0  0  0
  -10.4617  -20.9811   21.6256 C   0  0  0  0  0  0  0  0  0  0  0  0
  -11.0865  -21.7803   22.7631 C   0  0  0  0  0  0  0  0  0  0  0  0
  -11.9419  -21.0202   23.7543 C   0  0  0  0  0  0  0  0  0  0  0  0
  -11.6617  -19.5334   23.7617 C   0  0  0  0  0  0  0  0  0  0  0  0
  -10.2369  -19.2320   23.3301 C   0  0  0  0  0  0  0  0  0  0  0  0
   -5.0050  -22.1901   21.3808 H   0  0  0  0  0  0  0  0  0  0  0  0
   -4.4952  -21.3253   19.9085 H   0  0  0  0  0  0  0  0  0  0  0  0
   -3.3800  -21.5521   21.2573 H   0  0  0  0  0  0  0  0  0  0  0  0
   -4.8939  -20.2152   22.7077 H   0  0  0  0  0  0  0  0  0  0  0  0
   -2.9035  -19.3321   21.6768 H   0  0  0  0  0  0  0  0  0  0  0  0
   -4.1379  -18.0773   22.0069 H   0  0  0  0  0  0  0  0  0  0  0  0
   -5.2595  -19.2371   18.8783 H   0  0  0  0  0  0  0  0  0  0  0  0
   -4.3819  -17.3909   17.0742 H   0  0  0  0  0  0  0  0  0  0  0  0
   -1.8190  -17.2798   20.3590 H   0  0  0  0  0  0  0  0  0  0  0  0
   -6.4480  -18.9423   20.6354 H   0  0  0  0  0  0  0  0  0  0  0  0
   -8.1916  -17.4947   22.5927 H   0  0  0  0  0  0  0  0  0  0  0  0
   -7.7211  -17.2973   20.9188 H   0  0  0  0  0  0  0  0  0  0  0  0
   -9.4100  -17.1026   21.3591 H   0  0  0  0  0  0  0  0  0  0  0  0
   -9.7476  -18.7324   19.4255 H   0  0  0  0  0  0  0  0  0  0  0  0
   -8.0163  -18.9907   19.2511 H   0  0  0  0  0  0  0  0  0  0  0  0
   -9.0838  -20.3571   19.4861 H   0  0  0  0  0  0  0  0  0  0  0  0
  -11.1837  -20.9198   20.8154 H   0  0  0  0  0  0  0  0  0  0  0  0
   -9.6322  -21.5800   21.2396 H   0  0  0  0  0  0  0  0  0  0  0  0
  -10.2794  -22.2660   23.3265 H   0  0  0  0  0  0  0  0  0  0  0  0
  -11.7088  -22.5623   22.3358 H   0  0  0  0  0  0  0  0  0  0  0  0
  -11.7422  -21.4252   24.7556 H   0  0  0  0  0  0  0  0  0  0  0  0
  -13.0071  -21.2077   23.5924 H   0  0  0  0  0  0  0  0  0  0  0  0
  -12.3582  -19.0004   23.1060 H   0  0  0  0  0  0  0  0  0  0  0  0
  -11.8386  -19.1360   24.7685 H   0  0  0  0  0  0  0  0  0  0  0  0
  -10.1012  -18.1547   23.4677 H   0  0  0  0  0  0  0  0  0  0  0  0
   -9.5378  -19.7298   24.0095 H   0  0  0  0  0  0  0  0  0  0  0  0
  1  2  1  0
  2  3  1  0
  3  4  1  0
  4  5  1  0
  5  6  2  0
  6  7  1  0
  7  8  2  0
  2  9  1  0
  9 10  1  0
 10 11  2  0
 10 12  1  0
 12 13  1  0
 12 14  1  0
 12 15  1  0
 15 16  1  0
 16 17  1  0
 17 18  1  0
 18 19  1  0
 19 20  1  0
  8  4  1  0
 20 15  1  0
  1 21  1  0
  1 22  1  0
  1 23  1  0
  2 24  1  0
  3 25  1  0
  3 26  1  0
  5 27  1  0
  6 28  1  0
  8 29  1  0
  9 30  1  0
 13 31  1  0
 13 32  1  0
 13 33  1  0
 14 34  1  0
 14 35  1  0
 14 36  1  0
 16 37  1  0
 16 38  1  0
 17 39  1  0
 17 40  1  0
 18 41  1  0
 18 42  1  0
 19 43  1  0
 19 44  1  0
 20 45  1  0
 20 46  1  0
M  END
>  <Energy>  (1289) 
71.657141812708502

>  <compound_id>  (1289) 
17786

>  <target_id>  (1289) 
1

>  <reference_id>  (1289) 
63

>  <inspiration_ids>  (1289) 
[63, 9]

>  <energy_score>  (1289) 
-23.85949758680715

>  <distance_score>  (1289) 
15.839062084363734

>  <path>  (1289) 
/opt/xchem-fragalysis-2/maxwin/BulkDock/SCRATCH/511014/C17786-P63/C17786-P63.minimised.mol

>  <scratch_subdir>  (1289) 
/opt/xchem-fragalysis-2/maxwin/BulkDock/SCRATCH/511014/C17786-P63

>  <fragmenstein_runtime>  (1289) 
31.5605890750885

>  <fragmenstein_outcome>  (1289) 
too moved

>  <fragmenstein_mode>  (1289) 
expansion

>  <fragmenstein_error>  (1289) 


$$$$
C17786-P9
     RDKit          3D

 46 47  0  0  0  0  0  0  0  0999 V2000
   -2.1674  -14.2084   17.6385 C   0  0  0  0  0  0  0  0  0  0  0  0
   -3.1524  -14.8097   16.1679 C   0  0  0  0  0  0  0  0  0  0  0  0
   -1.3517  -14.2125   15.1908 C   0  0  0  0  0  0  0  0  0  0  0  0
   -0.6852  -13.5744   13.4798 N   0  0  0  0  0  0  0  0  0  0  0  0
    0.1173  -12.4558   13.0341 C   0  0  0  0  0  0  0  0  0  0  0  0
    0.0975  -12.2318   11.6886 C   0  0  0  0  0  0  0  0  0  0  0  0
   -0.1965  -13.4040   11.1410 N   0  0  0  0  0  0  0  0  0  0  0  0
   -0.3327  -14.2206   12.1733 C   0  0  0  0  0  0  0  0  0  0  0  0
   -3.7197  -16.6270   16.6968 N   0  0  0  0  0  0  0  0  0  0  0  0
   -5.0417  -17.6678   16.1061 C   0  0  0  0  0  0  0  0  0  0  0  0
   -5.8283  -17.3852   15.2185 O   0  0  0  0  0  0  0  0  0  0  0  0
   -5.2598  -19.5375   16.8259 C   0  0  0  0  0  0  0  0  0  0  0  0
   -5.0971  -19.2560   18.3473 C   0  0  0  0  0  0  0  0  0  0  0  0
   -3.9355  -20.2128   16.4066 C   0  0  0  0  0  0  0  0  0  0  0  0
   -6.6230  -20.9603   16.8887 N   0  0  0  0  0  0  0  0  0  0  0  0
   -7.4144  -20.4730   18.0046 C   0  0  0  0  0  0  0  0  0  0  0  0
   -8.8539  -20.6471   17.8494 C   0  0  0  0  0  0  0  0  0  0  0  0
   -9.5015  -21.3732   16.4140 C   0  0  0  0  0  0  0  0  0  0  0  0
   -9.0959  -22.2849   15.3136 C   0  0  0  0  0  0  0  0  0  0  0  0
   -7.6451  -22.1882   15.5432 C   0  0  0  0  0  0  0  0  0  0  0  0
   -1.0973  -14.0851   17.4722 H   0  0  0  0  0  0  0  0  0  0  0  0
   -2.4982  -13.1967   17.9047 H   0  0  0  0  0  0  0  0  0  0  0  0
   -2.0932  -14.9217   18.4580 H   0  0  0  0  0  0  0  0  0  0  0  0
   -3.7964  -14.1040   16.5808 H   0  0  0  0  0  0  0  0  0  0  0  0
   -1.4000  -13.4250   15.9076 H   0  0  0  0  0  0  0  0  0  0  0  0
   -0.4189  -14.4113   15.7702 H   0  0  0  0  0  0  0  0  0  0  0  0
    0.9024  -12.1103   13.6675 H   0  0  0  0  0  0  0  0  0  0  0  0
    0.5088  -11.4095   11.1181 H   0  0  0  0  0  0  0  0  0  0  0  0
   -0.2721  -15.2707   11.9785 H   0  0  0  0  0  0  0  0  0  0  0  0
   -3.2718  -17.0732   17.4972 H   0  0  0  0  0  0  0  0  0  0  0  0
   -4.5962  -18.3064   18.4275 H   0  0  0  0  0  0  0  0  0  0  0  0
   -5.9465  -18.9814   18.9698 H   0  0  0  0  0  0  0  0  0  0  0  0
   -4.5710  -20.0644   18.8640 H   0  0  0  0  0  0  0  0  0  0  0  0
   -3.8302  -20.2786   15.3193 H   0  0  0  0  0  0  0  0  0  0  0  0
   -3.0783  -19.6091   16.7208 H   0  0  0  0  0  0  0  0  0  0  0  0
   -3.8067  -21.2010   16.8599 H   0  0  0  0  0  0  0  0  0  0  0  0
   -7.3762  -19.3816   18.0536 H   0  0  0  0  0  0  0  0  0  0  0  0
   -7.0069  -20.8153   18.9535 H   0  0  0  0  0  0  0  0  0  0  0  0
   -9.1151  -21.1265   18.7801 H   0  0  0  0  0  0  0  0  0  0  0  0
   -9.3168  -19.6606   18.0218 H   0  0  0  0  0  0  0  0  0  0  0  0
   -9.9348  -20.6078   15.8084 H   0  0  0  0  0  0  0  0  0  0  0  0
   -9.8254  -22.2533   16.8163 H   0  0  0  0  0  0  0  0  0  0  0  0
   -9.4513  -23.3258   15.3567 H   0  0  0  0  0  0  0  0  0  0  0  0
   -9.4508  -21.9734   14.3254 H   0  0  0  0  0  0  0  0  0  0  0  0
   -7.3938  -23.1690   15.8203 H   0  0  0  0  0  0  0  0  0  0  0  0
   -7.4127  -21.8747   14.4797 H   0  0  0  0  0  0  0  0  0  0  0  0
  1  2  1  0
  2  3  1  0
  3  4  1  0
  4  5  1  0
  5  6  2  0
  6  7  1  0
  7  8  2  0
  2  9  1  0
  9 10  1  0
 10 11  2  0
 10 12  1  0
 12 13  1  0
 12 14  1  0
 12 15  1  0
 15 16  1  0
 16 17  1  0
 17 18  1  0
 18 19  1  0
 19 20  1  0
  8  4  1  0
 20 15  1  0
  1 21  1  0
  1 22  1  0
  1 23  1  0
  2 24  1  0
  3 25  1  0
  3 26  1  0
  5 27  1  0
  6 28  1  0
  8 29  1  0
  9 30  1  0
 13 31  1  0
 13 32  1  0
 13 33  1  0
 14 34  1  0
 14 35  1  0
 14 36  1  0
 16 37  1  0
 16 38  1  0
 17 39  1  0
 17 40  1  0
 18 41  1  0
 18 42  1  0
 19 43  1  0
 19 44  1  0
 20 45  1  0
 20 46  1  0
M  END
>  <Energy>  (1290) 
912.7060077238641

>  <compound_id>  (1290) 
17786

>  <target_id>  (1290) 
1

>  <reference_id>  (1290) 
9

>  <inspiration_ids>  (1290) 
[63, 9]

>  <energy_score>  (1290) 
817.189368324341

>  <distance_score>  (1290) 
12.601124477833434

>  <path>  (1290) 
/opt/xchem-fragalysis-2/maxwin/BulkDock/SCRATCH/511014/C17786-P9/C17786-P9.minimised.mol

>  <scratch_subdir>  (1290) 
/opt/xchem-fragalysis-2/maxwin/BulkDock/SCRATCH/511014/C17786-P9

>  <fragmenstein_runtime>  (1290) 
21.888508319854736

>  <fragmenstein_outcome>  (1290) 
too moved

>  <fragmenstein_mode>  (1290) 
expansion

>  <fragmenstein_error>  (1290) 


$$$$
C17787-P63
     RDKit          3D

 51 53  0  0  0  0  0  0  0  0999 V2000
   -8.6440  -19.7335   11.6927 C   0  0  0  0  0  0  0  0  0  0  0  0
   -8.4505  -18.2004   12.0259 C   0  0  0  0  0  0  0  0  0  0  0  0
   -8.2689  -17.7204   10.5167 C   0  0  0  0  0  0  0  0  0  0  0  0
   -9.4628  -17.9828    9.6592 N   0  0  0  0  0  0  0  0  0  0  0  0
   -9.1271  -18.6348    8.3910 C   0  0  0  0  0  0  0  0  0  0  0  0
  -10.3763  -19.2467    7.7508 C   0  0  0  0  0  0  0  0  0  0  0  0
  -11.6257  -18.3897    7.9315 C   0  0  0  0  0  0  0  0  0  0  0  0
  -11.2888  -16.9471    8.2869 C   0  0  0  0  0  0  0  0  0  0  0  0
  -10.2570  -16.7807    9.4146 C   0  0  0  0  0  0  0  0  0  0  0  0
   -7.1776  -17.5564   12.9929 N   0  0  0  0  0  0  0  0  0  0  0  0
   -5.7555  -18.0508   13.2242 C   0  0  0  0  0  0  0  0  0  0  0  0
   -5.2097  -19.0738   12.8553 O   0  0  0  0  0  0  0  0  0  0  0  0
   -5.0339  -16.4939   14.1017 N   0  0  0  0  0  0  0  0  0  0  0  0
   -3.0436  -15.8417   14.6068 C   0  0  0  0  0  0  0  0  0  0  0  0
   -1.4544  -14.2659   14.2303 C   0  0  0  0  0  0  0  0  0  0  0  0
   -0.9410  -12.6340   13.9354 C   0  0  0  0  0  0  0  0  0  0  0  0
   -1.2071  -10.7897   13.9393 C   0  0  0  0  0  0  0  0  0  0  0  0
   -0.8970  -10.1243   13.0020 C   0  0  0  0  0  0  0  0  0  0  0  0
   -0.7137   -8.1761   13.6154 N   0  0  0  0  0  0  0  0  0  0  0  0
   -0.1728   -7.3248   14.9712 C   0  0  0  0  0  0  0  0  0  0  0  0
   -0.2276   -5.9465   14.8091 C   0  0  0  0  0  0  0  0  0  0  0  0
   -0.6775   -5.6203   13.5722 N   0  0  0  0  0  0  0  0  0  0  0  0
   -0.8275   -6.7239   12.8507 C   0  0  0  0  0  0  0  0  0  0  0  0
   -0.2659  -11.6608   12.2988 N   0  0  0  0  0  0  0  0  0  0  0  0
   -0.4660  -13.4790   12.8648 C   0  0  0  0  0  0  0  0  0  0  0  0
   -9.5801  -20.1049   12.1181 H   0  0  0  0  0  0  0  0  0  0  0  0
   -8.7626  -19.9949   10.6420 H   0  0  0  0  0  0  0  0  0  0  0  0
   -7.7849  -20.3126   11.9963 H   0  0  0  0  0  0  0  0  0  0  0  0
   -9.3558  -17.7358   12.4282 H   0  0  0  0  0  0  0  0  0  0  0  0
   -7.4139  -18.2678   10.1072 H   0  0  0  0  0  0  0  0  0  0  0  0
   -7.9586  -16.6840   10.4032 H   0  0  0  0  0  0  0  0  0  0  0  0
   -8.6561  -17.9190    7.7040 H   0  0  0  0  0  0  0  0  0  0  0  0
   -8.4092  -19.4461    8.5208 H   0  0  0  0  0  0  0  0  0  0  0  0
  -10.1818  -19.3824    6.6795 H   0  0  0  0  0  0  0  0  0  0  0  0
  -10.5621  -20.2500    8.1502 H   0  0  0  0  0  0  0  0  0  0  0  0
  -12.2250  -18.4155    7.0134 H   0  0  0  0  0  0  0  0  0  0  0  0
  -12.2687  -18.8113    8.7050 H   0  0  0  0  0  0  0  0  0  0  0  0
  -12.2067  -16.4055    8.5441 H   0  0  0  0  0  0  0  0  0  0  0  0
  -10.8916  -16.4639    7.3839 H   0  0  0  0  0  0  0  0  0  0  0  0
   -9.6101  -15.9377    9.1347 H   0  0  0  0  0  0  0  0  0  0  0  0
  -10.7650  -16.4648   10.3309 H   0  0  0  0  0  0  0  0  0  0  0  0
   -7.3165  -16.7274   13.5006 H   0  0  0  0  0  0  0  0  0  0  0  0
   -5.6841  -15.9649   14.3082 H   0  0  0  0  0  0  0  0  0  0  0  0
   -2.7610  -16.8721   14.7593 H   0  0  0  0  0  0  0  0  0  0  0  0
   -3.5004  -15.6667   13.6624 H   0  0  0  0  0  0  0  0  0  0  0  0
    0.3960  -12.4501   13.9309 H   0  0  0  0  0  0  0  0  0  0  0  0
   -1.8965  -10.0697   14.4379 H   0  0  0  0  0  0  0  0  0  0  0  0
    0.1372   -7.9305   15.8232 H   0  0  0  0  0  0  0  0  0  0  0  0
    0.0413   -5.1910   15.5369 H   0  0  0  0  0  0  0  0  0  0  0  0
   -1.0383   -6.6721   11.8019 H   0  0  0  0  0  0  0  0  0  0  0  0
   -0.1209  -14.1039   12.0204 H   0  0  0  0  0  0  0  0  0  0  0  0
  1  2  1  0
  2  3  1  0
  3  4  1  0
  4  5  1  0
  5  6  1  0
  6  7  1  0
  7  8  1  0
  8  9  1  0
  2 10  1  0
 10 11  1  0
 11 12  2  0
 11 13  1  0
 13 14  1  0
 14 15  1  0
 15 16  2  0
 16 17  1  0
 17 18  2  0
 18 19  1  0
 19 20  1  0
 20 21  2  0
 21 22  1  0
 22 23  2  0
 18 24  1  0
 24 25  2  0
  9  4  1  0
 25 15  1  0
 23 19  1  0
  1 26  1  0
  1 27  1  0
  1 28  1  0
  2 29  1  0
  3 30  1  0
  3 31  1  0
  5 32  1  0
  5 33  1  0
  6 34  1  0
  6 35  1  0
  7 36  1  0
  7 37  1  0
  8 38  1  0
  8 39  1  0
  9 40  1  0
  9 41  1  0
 10 42  1  0
 13 43  1  0
 14 44  1  0
 14 45  1  0
 16 46  1  0
 17 47  1  0
 20 48  1  0
 21 49  1  0
 23 50  1  0
 25 51  1  0
M  END
>  <Energy>  (1291) 
1509.3184673244948

>  <compound_id>  (1291) 
17787

>  <target_id>  (1291) 
1

>  <reference_id>  (1291) 
63

>  <inspiration_ids>  (1291) 
[63, 9]

>  <energy_score>  (1291) 
1505.3024997113205

>  <distance_score>  (1291) 
11.942844035191275

>  <path>  (1291) 
/opt/xchem-fragalysis-2/maxwin/BulkDock/SCRATCH/511014/C17787-P63/C17787-P63.minimised.mol

>  <scratch_subdir>  (1291) 
/opt/xchem-fragalysis-2/maxwin/BulkDock/SCRATCH/511014/C17787-P63

>  <fragmenstein_runtime>  (1291) 
29.227102756500244

>  <fragmenstein_outcome>  (1291) 
too moved

>  <fragmenstein_mode>  (1291) 
expansion

>  <fragmenstein_error>  (1291) 


$$$$
C17787-P9
     RDKit          3D

 51 53  0  0  0  0  0  0  0  0999 V2000
   -7.4156  -20.4869   18.9290 C   0  0  0  0  0  0  0  0  0  0  0  0
   -6.7987  -21.5684   17.6551 C   0  0  0  0  0  0  0  0  0  0  0  0
   -7.8409  -22.3040   15.8177 C   0  0  0  0  0  0  0  0  0  0  0  0
   -9.3753  -22.9820   15.1642 N   0  0  0  0  0  0  0  0  0  0  0  0
   -9.6383  -22.4185   13.7975 C   0  0  0  0  0  0  0  0  0  0  0  0
  -10.6387  -23.0595   12.7935 C   0  0  0  0  0  0  0  0  0  0  0  0
  -10.7548  -24.5566   12.7152 C   0  0  0  0  0  0  0  0  0  0  0  0
   -9.6822  -25.1575   13.5572 C   0  0  0  0  0  0  0  0  0  0  0  0
   -9.6821  -24.4753   14.9487 C   0  0  0  0  0  0  0  0  0  0  0  0
   -5.2495  -20.6524   16.9543 N   0  0  0  0  0  0  0  0  0  0  0  0
   -4.6180  -18.7668   17.2016 C   0  0  0  0  0  0  0  0  0  0  0  0
   -5.1262  -18.0620   18.0260 O   0  0  0  0  0  0  0  0  0  0  0  0
   -3.4426  -17.9419   15.8610 N   0  0  0  0  0  0  0  0  0  0  0  0
   -3.0306  -15.9761   15.3999 C   0  0  0  0  0  0  0  0  0  0  0  0
   -1.6596  -14.5951   14.4788 C   0  0  0  0  0  0  0  0  0  0  0  0
   -0.9371  -13.3124   13.7488 C   0  0  0  0  0  0  0  0  0  0  0  0
    0.0595  -12.2174   12.8055 C   0  0  0  0  0  0  0  0  0  0  0  0
    0.5537  -12.2945   11.6203 C   0  0  0  0  0  0  0  0  0  0  0  0
    1.6950  -11.1255   11.0732 N   0  0  0  0  0  0  0  0  0  0  0  0
    2.9514  -11.2697   10.3803 C   0  0  0  0  0  0  0  0  0  0  0  0
    3.4758  -10.0206   10.1223 C   0  0  0  0  0  0  0  0  0  0  0  0
    2.5084   -9.1034   10.2291 N   0  0  0  0  0  0  0  0  0  0  0  0
    1.4557   -9.8400   10.5212 C   0  0  0  0  0  0  0  0  0  0  0  0
    0.3650  -13.6229   11.6906 N   0  0  0  0  0  0  0  0  0  0  0  0
   -0.6451  -14.4534   12.8382 C   0  0  0  0  0  0  0  0  0  0  0  0
   -8.4801  -20.6507   19.1324 H   0  0  0  0  0  0  0  0  0  0  0  0
   -7.3148  -19.4245   18.6636 H   0  0  0  0  0  0  0  0  0  0  0  0
   -6.8526  -20.5855   19.8638 H   0  0  0  0  0  0  0  0  0  0  0  0
   -7.5845  -20.8661   17.3844 H   0  0  0  0  0  0  0  0  0  0  0  0
   -7.4433  -23.2628   15.8284 H   0  0  0  0  0  0  0  0  0  0  0  0
   -7.5860  -21.8697   14.8305 H   0  0  0  0  0  0  0  0  0  0  0  0
   -8.6968  -22.3607   13.2405 H   0  0  0  0  0  0  0  0  0  0  0  0
  -10.0347  -21.4190   13.9442 H   0  0  0  0  0  0  0  0  0  0  0  0
  -11.6453  -22.6915   12.9541 H   0  0  0  0  0  0  0  0  0  0  0  0
  -10.3488  -22.7082   11.7997 H   0  0  0  0  0  0  0  0  0  0  0  0
  -11.7402  -24.8729   13.0803 H   0  0  0  0  0  0  0  0  0  0  0  0
  -10.6858  -24.9063   11.6789 H   0  0  0  0  0  0  0  0  0  0  0  0
   -9.8765  -26.2302   13.6811 H   0  0  0  0  0  0  0  0  0  0  0  0
   -8.7438  -25.0802   13.0084 H   0  0  0  0  0  0  0  0  0  0  0  0
  -10.7232  -24.5997   15.2333 H   0  0  0  0  0  0  0  0  0  0  0  0
   -9.2443  -25.2052   15.6202 H   0  0  0  0  0  0  0  0  0  0  0  0
   -4.7069  -21.1117   16.2554 H   0  0  0  0  0  0  0  0  0  0  0  0
   -3.0379  -18.6475   15.3114 H   0  0  0  0  0  0  0  0  0  0  0  0
   -3.5493  -15.4741   16.2280 H   0  0  0  0  0  0  0  0  0  0  0  0
   -3.6191  -16.2382   14.5184 H   0  0  0  0  0  0  0  0  0  0  0  0
   -1.1490  -12.2816   13.9404 H   0  0  0  0  0  0  0  0  0  0  0  0
    0.9157  -12.0648   13.4893 H   0  0  0  0  0  0  0  0  0  0  0  0
    3.3608  -12.2187   10.1167 H   0  0  0  0  0  0  0  0  0  0  0  0
    4.4401   -9.7612    9.7138 H   0  0  0  0  0  0  0  0  0  0  0  0
    0.5282   -9.6112   10.0620 H   0  0  0  0  0  0  0  0  0  0  0  0
   -0.5642  -15.2914   12.0957 H   0  0  0  0  0  0  0  0  0  0  0  0
  1  2  1  0
  2  3  1  0
  3  4  1  0
  4  5  1  0
  5  6  1  0
  6  7  1  0
  7  8  1  0
  8  9  1  0
  2 10  1  0
 10 11  1  0
 11 12  2  0
 11 13  1  0
 13 14  1  0
 14 15  1  0
 15 16  2  0
 16 17  1  0
 17 18  2  0
 18 19  1  0
 19 20  1  0
 20 21  2  0
 21 22  1  0
 22 23  2  0
 18 24  1  0
 24 25  2  0
  9  4  1  0
 25 15  1  0
 23 19  1  0
  1 26  1  0
  1 27  1  0
  1 28  1  0
  2 29  1  0
  3 30  1  0
  3 31  1  0
  5 32  1  0
  5 33  1  0
  6 34  1  0
  6 35  1  0
  7 36  1  0
  7 37  1  0
  8 38  1  0
  8 39  1  0
  9 40  1  0
  9 41  1  0
 10 42  1  0
 13 43  1  0
 14 44  1  0
 14 45  1  0
 16 46  1  0
 17 47  1  0
 20 48  1  0
 21 49  1  0
 23 50  1  0
 25 51  1  0
M  END
>  <Energy>  (1292) 
1442.3311478785074

>  <compound_id>  (1292) 
17787

>  <target_id>  (1292) 
1

>  <reference_id>  (1292) 
9

>  <inspiration_ids>  (1292) 
[63, 9]

>  <energy_score>  (1292) 
1438.3151802652917

>  <distance_score>  (1292) 
9.350838751167794

>  <path>  (1292) 
/opt/xchem-fragalysis-2/maxwin/BulkDock/SCRATCH/511014/C17787-P9/C17787-P9.minimised.mol

>  <scratch_subdir>  (1292) 
/opt/xchem-fragalysis-2/maxwin/BulkDock/SCRATCH/511014/C17787-P9

>  <fragmenstein_runtime>  (1292) 
21.438279151916504

>  <fragmenstein_outcome>  (1292) 
too moved

>  <fragmenstein_mode>  (1292) 
expansion

>  <fragmenstein_error>  (1292) 


$$$$
C17788-P63
     RDKit          3D

 57 58  0  0  0  0  0  0  0  0999 V2000
   -5.7486  -10.5562    9.6996 C   0  0  0  0  0  0  0  0  0  0  0  0
   -5.7243  -11.6005    8.5910 C   0  0  0  0  0  0  0  0  0  0  0  0
   -5.3125  -13.0040    9.0999 C   0  0  0  0  0  0  0  0  0  0  0  0
   -3.8806  -12.9185    9.5221 N   0  0  0  0  0  0  0  0  0  0  0  0
   -4.2072  -14.3633   10.1068 C   0  0  0  0  0  0  0  0  0  0  0  0
   -4.8965  -15.6642    9.3658 C   0  0  0  0  0  0  0  0  0  0  0  0
   -6.3436  -16.0345    9.5504 N   0  0  0  0  0  0  0  0  0  0  0  0
   -6.6399  -17.2941    8.8127 C   0  0  0  0  0  0  0  0  0  0  0  0
   -7.8823  -18.0623    9.2982 C   0  0  0  0  0  0  0  0  0  0  0  0
   -8.9431  -17.1039    9.7897 C   0  0  0  0  0  0  0  0  0  0  0  0
   -8.3936  -16.2623   10.9405 C   0  0  0  0  0  0  0  0  0  0  0  0
   -6.8567  -16.1364   10.9210 C   0  0  0  0  0  0  0  0  0  0  0  0
   -2.6133  -12.9594    8.7014 C   0  0  0  0  0  0  0  0  0  0  0  0
   -2.4674  -13.1582    7.5490 O   0  0  0  0  0  0  0  0  0  0  0  0
   -1.6132  -12.5749    9.7515 N   0  0  0  0  0  0  0  0  0  0  0  0
   -0.1504  -12.4279    9.6772 C   0  0  0  0  0  0  0  0  0  0  0  0
    0.4916  -11.1341   10.2229 C   0  0  0  0  0  0  0  0  0  0  0  0
   -0.0305   -9.8775   10.4785 C   0  0  0  0  0  0  0  0  0  0  0  0
    1.0246   -9.0772   10.8518 N   0  0  0  0  0  0  0  0  0  0  0  0
    0.9468   -7.6533   11.1485 C   0  0  0  0  0  0  0  0  0  0  0  0
    1.8514   -6.8280   10.2315 C   0  0  0  0  0  0  0  0  0  0  0  0
    1.2424   -7.3685   12.6201 C   0  0  0  0  0  0  0  0  0  0  0  0
    2.1480   -9.8495   10.8490 C   0  0  0  0  0  0  0  0  0  0  0  0
    1.8721  -11.0783   10.4665 N   0  0  0  0  0  0  0  0  0  0  0  0
   -4.7542  -10.4072   10.1317 H   0  0  0  0  0  0  0  0  0  0  0  0
   -6.0887   -9.5947    9.3020 H   0  0  0  0  0  0  0  0  0  0  0  0
   -6.4317  -10.8517   10.5023 H   0  0  0  0  0  0  0  0  0  0  0  0
   -6.7255  -11.6675    8.1487 H   0  0  0  0  0  0  0  0  0  0  0  0
   -5.0420  -11.2704    7.7984 H   0  0  0  0  0  0  0  0  0  0  0  0
   -6.0345  -13.2234    9.9008 H   0  0  0  0  0  0  0  0  0  0  0  0
   -5.4248  -13.6305    8.2083 H   0  0  0  0  0  0  0  0  0  0  0  0
   -4.6866  -14.2025   11.0839 H   0  0  0  0  0  0  0  0  0  0  0  0
   -3.2040  -14.7335   10.3637 H   0  0  0  0  0  0  0  0  0  0  0  0
   -4.2942  -16.5301    9.6628 H   0  0  0  0  0  0  0  0  0  0  0  0
   -4.6998  -15.5641    8.2901 H   0  0  0  0  0  0  0  0  0  0  0  0
   -5.7907  -17.9880    8.8596 H   0  0  0  0  0  0  0  0  0  0  0  0
   -6.7769  -17.0302    7.7570 H   0  0  0  0  0  0  0  0  0  0  0  0
   -7.6076  -18.7257   10.1259 H   0  0  0  0  0  0  0  0  0  0  0  0
   -8.2736  -18.6869    8.4879 H   0  0  0  0  0  0  0  0  0  0  0  0
   -9.8357  -17.6472   10.0970 H   0  0  0  0  0  0  0  0  0  0  0  0
   -9.2478  -16.4436    8.9679 H   0  0  0  0  0  0  0  0  0  0  0  0
   -8.8500  -15.2659   10.8976 H   0  0  0  0  0  0  0  0  0  0  0  0
   -8.6963  -16.7037   11.8980 H   0  0  0  0  0  0  0  0  0  0  0  0
   -6.4490  -17.0125   11.4289 H   0  0  0  0  0  0  0  0  0  0  0  0
   -6.5889  -15.2554   11.5125 H   0  0  0  0  0  0  0  0  0  0  0  0
   -2.0949  -12.4041   10.6254 H   0  0  0  0  0  0  0  0  0  0  0  0
    0.1398  -12.5407    8.6272 H   0  0  0  0  0  0  0  0  0  0  0  0
    0.2657  -13.2727   10.2367 H   0  0  0  0  0  0  0  0  0  0  0  0
   -1.0407   -9.5029   10.3913 H   0  0  0  0  0  0  0  0  0  0  0  0
   -0.0903   -7.3537   10.9490 H   0  0  0  0  0  0  0  0  0  0  0  0
    1.6968   -5.7568   10.3990 H   0  0  0  0  0  0  0  0  0  0  0  0
    1.6368   -7.0394    9.1779 H   0  0  0  0  0  0  0  0  0  0  0  0
    2.9113   -7.0439   10.4061 H   0  0  0  0  0  0  0  0  0  0  0  0
    2.2617   -7.6632   12.8935 H   0  0  0  0  0  0  0  0  0  0  0  0
    1.1290   -6.3016   12.8396 H   0  0  0  0  0  0  0  0  0  0  0  0
    0.5504   -7.9188   13.2664 H   0  0  0  0  0  0  0  0  0  0  0  0
    3.1294   -9.4799   11.1142 H   0  0  0  0  0  0  0  0  0  0  0  0
  1  2  1  0
  2  3  1  0
  3  4  1  0
  4  5  1  0
  5  6  1  0
  6  7  1  0
  7  8  1  0
  8  9  1  0
  9 10  1  0
 10 11  1  0
 11 12  1  0
  4 13  1  0
 13 14  2  0
 13 15  1  0
 15 16  1  0
 16 17  1  0
 17 18  2  0
 18 19  1  0
 19 20  1  0
 20 21  1  0
 20 22  1  0
 19 23  1  0
 23 24  2  0
 12  7  1  0
 24 17  1  0
  1 25  1  0
  1 26  1  0
  1 27  1  0
  2 28  1  0
  2 29  1  0
  3 30  1  0
  3 31  1  0
  5 32  1  0
  5 33  1  0
  6 34  1  0
  6 35  1  0
  8 36  1  0
  8 37  1  0
  9 38  1  0
  9 39  1  0
 10 40  1  0
 10 41  1  0
 11 42  1  0
 11 43  1  0
 12 44  1  0
 12 45  1  0
 15 46  1  0
 16 47  1  0
 16 48  1  0
 18 49  1  0
 20 50  1  0
 21 51  1  0
 21 52  1  0
 21 53  1  0
 22 54  1  0
 22 55  1  0
 22 56  1  0
 23 57  1  0
M  END
>  <Energy>  (1293) 
53.8950063133288

>  <compound_id>  (1293) 
17788

>  <target_id>  (1293) 
1

>  <reference_id>  (1293) 
63

>  <inspiration_ids>  (1293) 
[63, 9]

>  <energy_score>  (1293) 
43.267430563142284

>  <distance_score>  (1293) 
14.587760636548095

>  <path>  (1293) 
/opt/xchem-fragalysis-2/maxwin/BulkDock/SCRATCH/511014/C17788-P63/C17788-P63.minimised.mol

>  <scratch_subdir>  (1293) 
/opt/xchem-fragalysis-2/maxwin/BulkDock/SCRATCH/511014/C17788-P63

>  <fragmenstein_runtime>  (1293) 
42.51774978637695

>  <fragmenstein_outcome>  (1293) 
too moved

>  <fragmenstein_mode>  (1293) 
expansion

>  <fragmenstein_error>  (1293) 


$$$$
C17788-P9
     RDKit          3D

 57 58  0  0  0  0  0  0  0  0999 V2000
   -8.5018  -16.7917   20.2557 C   0  0  0  0  0  0  0  0  0  0  0  0
   -8.0731  -18.2431   20.0719 C   0  0  0  0  0  0  0  0  0  0  0  0
   -6.9624  -18.4403   18.9993 C   0  0  0  0  0  0  0  0  0  0  0  0
   -5.6153  -17.8653   19.3819 N   0  0  0  0  0  0  0  0  0  0  0  0
   -5.3108  -19.3364   19.6487 C   0  0  0  0  0  0  0  0  0  0  0  0
   -6.1063  -20.4073   20.5336 C   0  0  0  0  0  0  0  0  0  0  0  0
   -5.4553  -21.7316   20.7229 N   0  0  0  0  0  0  0  0  0  0  0  0
   -5.1747  -22.5316   19.5219 C   0  0  0  0  0  0  0  0  0  0  0  0
   -5.2760  -24.0528   19.6966 C   0  0  0  0  0  0  0  0  0  0  0  0
   -4.6714  -24.5033   21.0039 C   0  0  0  0  0  0  0  0  0  0  0  0
   -5.2582  -23.7599   22.1926 C   0  0  0  0  0  0  0  0  0  0  0  0
   -6.0181  -22.4785   21.8493 C   0  0  0  0  0  0  0  0  0  0  0  0
   -4.4049  -17.1779   18.4108 C   0  0  0  0  0  0  0  0  0  0  0  0
   -4.3725  -17.1148   17.2320 O   0  0  0  0  0  0  0  0  0  0  0  0
   -3.2396  -16.4361   19.4851 N   0  0  0  0  0  0  0  0  0  0  0  0
   -1.7218  -15.5530   19.1296 C   0  0  0  0  0  0  0  0  0  0  0  0
    0.0064  -15.6166   18.2288 C   0  0  0  0  0  0  0  0  0  0  0  0
    1.2267  -16.3977   18.3522 C   0  0  0  0  0  0  0  0  0  0  0  0
    2.3259  -15.7774   17.7667 N   0  0  0  0  0  0  0  0  0  0  0  0
    3.6492  -16.2953   17.4720 C   0  0  0  0  0  0  0  0  0  0  0  0
    3.6912  -17.3042   16.3252 C   0  0  0  0  0  0  0  0  0  0  0  0
    4.9294  -15.4323   17.5494 C   0  0  0  0  0  0  0  0  0  0  0  0
    1.9590  -14.5010   17.6253 C   0  0  0  0  0  0  0  0  0  0  0  0
    0.6356  -14.2885   17.5363 N   0  0  0  0  0  0  0  0  0  0  0  0
   -8.7814  -16.3296   19.3040 H   0  0  0  0  0  0  0  0  0  0  0  0
   -9.3701  -16.7410   20.9211 H   0  0  0  0  0  0  0  0  0  0  0  0
   -7.7040  -16.2028   20.7135 H   0  0  0  0  0  0  0  0  0  0  0  0
   -8.9522  -18.8157   19.7515 H   0  0  0  0  0  0  0  0  0  0  0  0
   -7.7846  -18.6161   21.0558 H   0  0  0  0  0  0  0  0  0  0  0  0
   -7.3068  -17.7130   18.2511 H   0  0  0  0  0  0  0  0  0  0  0  0
   -7.0391  -19.3742   18.4159 H   0  0  0  0  0  0  0  0  0  0  0  0
   -4.4077  -19.2669   20.2098 H   0  0  0  0  0  0  0  0  0  0  0  0
   -5.0983  -19.7841   18.6670 H   0  0  0  0  0  0  0  0  0  0  0  0
   -6.2152  -19.9518   21.5251 H   0  0  0  0  0  0  0  0  0  0  0  0
   -7.1154  -20.5668   20.1590 H   0  0  0  0  0  0  0  0  0  0  0  0
   -5.7762  -22.2115   18.6666 H   0  0  0  0  0  0  0  0  0  0  0  0
   -4.1379  -22.3373   19.2385 H   0  0  0  0  0  0  0  0  0  0  0  0
   -6.3062  -24.4014   19.6495 H   0  0  0  0  0  0  0  0  0  0  0  0
   -4.7267  -24.5524   18.8958 H   0  0  0  0  0  0  0  0  0  0  0  0
   -3.5883  -24.3264   20.9748 H   0  0  0  0  0  0  0  0  0  0  0  0
   -4.7996  -25.5842   21.1341 H   0  0  0  0  0  0  0  0  0  0  0  0
   -4.4425  -23.5241   22.8884 H   0  0  0  0  0  0  0  0  0  0  0  0
   -5.9345  -24.4280   22.7409 H   0  0  0  0  0  0  0  0  0  0  0  0
   -7.0708  -22.7228   21.7012 H   0  0  0  0  0  0  0  0  0  0  0  0
   -5.9992  -21.8476   22.7478 H   0  0  0  0  0  0  0  0  0  0  0  0
   -3.4445  -16.7081   20.4376 H   0  0  0  0  0  0  0  0  0  0  0  0
   -1.9927  -14.6003   18.6879 H   0  0  0  0  0  0  0  0  0  0  0  0
   -1.5124  -15.7187   20.1775 H   0  0  0  0  0  0  0  0  0  0  0  0
    1.2972  -17.4210   18.6358 H   0  0  0  0  0  0  0  0  0  0  0  0
    3.8226  -16.8537   18.3469 H   0  0  0  0  0  0  0  0  0  0  0  0
    4.7049  -17.6730   16.1364 H   0  0  0  0  0  0  0  0  0  0  0  0
    3.0673  -18.1764   16.5428 H   0  0  0  0  0  0  0  0  0  0  0  0
    3.3458  -16.8693   15.3997 H   0  0  0  0  0  0  0  0  0  0  0  0
    5.6203  -15.8088   18.3134 H   0  0  0  0  0  0  0  0  0  0  0  0
    5.5232  -15.5279   16.6376 H   0  0  0  0  0  0  0  0  0  0  0  0
    4.7630  -14.3905   17.8244 H   0  0  0  0  0  0  0  0  0  0  0  0
    2.7356  -13.7912   17.7646 H   0  0  0  0  0  0  0  0  0  0  0  0
  1  2  1  0
  2  3  1  0
  3  4  1  0
  4  5  1  0
  5  6  1  0
  6  7  1  0
  7  8  1  0
  8  9  1  0
  9 10  1  0
 10 11  1  0
 11 12  1  0
  4 13  1  0
 13 14  2  0
 13 15  1  0
 15 16  1  0
 16 17  1  0
 17 18  2  0
 18 19  1  0
 19 20  1  0
 20 21  1  0
 20 22  1  0
 19 23  1  0
 23 24  2  0
 12  7  1  0
 24 17  1  0
  1 25  1  0
  1 26  1  0
  1 27  1  0
  2 28  1  0
  2 29  1  0
  3 30  1  0
  3 31  1  0
  5 32  1  0
  5 33  1  0
  6 34  1  0
  6 35  1  0
  8 36  1  0
  8 37  1  0
  9 38  1  0
  9 39  1  0
 10 40  1  0
 10 41  1  0
 11 42  1  0
 11 43  1  0
 12 44  1  0
 12 45  1  0
 15 46  1  0
 16 47  1  0
 16 48  1  0
 18 49  1  0
 20 50  1  0
 21 51  1  0
 21 52  1  0
 21 53  1  0
 22 54  1  0
 22 55  1  0
 22 56  1  0
 23 57  1  0
M  END
>  <Energy>  (1294) 
281.36731733860546

>  <compound_id>  (1294) 
17788

>  <target_id>  (1294) 
1

>  <reference_id>  (1294) 
9

>  <inspiration_ids>  (1294) 
[63, 9]

>  <energy_score>  (1294) 
270.73974158841764

>  <distance_score>  (1294) 
13.814046294904175

>  <path>  (1294) 
/opt/xchem-fragalysis-2/maxwin/BulkDock/SCRATCH/511014/C17788-P9/C17788-P9.minimised.mol

>  <scratch_subdir>  (1294) 
/opt/xchem-fragalysis-2/maxwin/BulkDock/SCRATCH/511014/C17788-P9

>  <fragmenstein_runtime>  (1294) 
31.48023796081543

>  <fragmenstein_outcome>  (1294) 
too moved

>  <fragmenstein_mode>  (1294) 
expansion

>  <fragmenstein_error>  (1294) 


$$$$
C17789-P63
     RDKit          3D

 41 42  0  0  0  0  0  0  0  0999 V2000
  -10.3298  -20.6293   12.5993 N   0  0  0  0  0  0  0  0  0  0  0  0
   -9.2661  -21.0311   11.7850 C   0  0  0  0  0  0  0  0  0  0  0  0
   -8.4090  -20.3746   11.1906 N   0  0  0  0  0  0  0  0  0  0  0  0
   -8.2390  -18.8500   11.1941 C   0  0  0  0  0  0  0  0  0  0  0  0
   -6.6922  -18.3973   11.2672 C   0  0  0  0  0  0  0  0  0  0  0  0
   -6.0865  -16.9411   11.3399 C   0  0  0  0  0  0  0  0  0  0  0  0
   -6.6718  -15.7709   11.5483 N   0  0  0  0  0  0  0  0  0  0  0  0
   -5.6919  -14.7948   11.4756 C   0  0  0  0  0  0  0  0  0  0  0  0
   -4.4720  -15.3568   11.2180 C   0  0  0  0  0  0  0  0  0  0  0  0
   -4.7059  -16.7107   11.2100 N   0  0  0  0  0  0  0  0  0  0  0  0
   -3.6708  -17.7190   11.0755 C   0  0  0  0  0  0  0  0  0  0  0  0
   -3.2638  -17.9475    9.6398 C   0  0  0  0  0  0  0  0  0  0  0  0
   -2.2965  -18.8928    9.5650 F   0  0  0  0  0  0  0  0  0  0  0  0
   -4.2945  -18.3721    8.8761 F   0  0  0  0  0  0  0  0  0  0  0  0
   -2.7613  -16.8280    9.0697 F   0  0  0  0  0  0  0  0  0  0  0  0
   -9.4311  -22.4894   11.9420 N   0  0  0  0  0  0  0  0  0  0  0  0
   -8.5213  -23.6633   11.5103 C   0  0  0  0  0  0  0  0  0  0  0  0
   -8.8123  -24.9661   10.7186 C   0  0  0  0  0  0  0  0  0  0  0  0
  -10.1754  -25.5048   11.1096 C   0  0  0  0  0  0  0  0  0  0  0  0
  -11.1033  -24.3159   11.1823 C   0  0  0  0  0  0  0  0  0  0  0  0
  -10.3188  -23.0624   10.7915 C   0  0  0  0  0  0  0  0  0  0  0  0
  -10.9064  -21.4570   12.8216 H   0  0  0  0  0  0  0  0  0  0  0  0
  -10.7593  -21.4704   13.0207 H   0  0  0  0  0  0  0  0  0  0  0  0
   -8.6361  -18.4885   10.2381 H   0  0  0  0  0  0  0  0  0  0  0  0
   -8.8281  -18.3627   11.9720 H   0  0  0  0  0  0  0  0  0  0  0  0
   -6.2279  -18.8138   10.3685 H   0  0  0  0  0  0  0  0  0  0  0  0
   -6.2413  -18.8990   12.1269 H   0  0  0  0  0  0  0  0  0  0  0  0
   -5.9420  -13.7478   11.5866 H   0  0  0  0  0  0  0  0  0  0  0  0
   -3.4942  -14.9389   11.0423 H   0  0  0  0  0  0  0  0  0  0  0  0
   -4.0237  -18.6484   11.5309 H   0  0  0  0  0  0  0  0  0  0  0  0
   -2.8088  -17.3858   11.6614 H   0  0  0  0  0  0  0  0  0  0  0  0
   -8.5926  -24.1599   12.4799 H   0  0  0  0  0  0  0  0  0  0  0  0
   -7.4758  -23.3759   11.5293 H   0  0  0  0  0  0  0  0  0  0  0  0
   -8.7587  -24.8123    9.6345 H   0  0  0  0  0  0  0  0  0  0  0  0
   -8.0444  -25.7154   10.9490 H   0  0  0  0  0  0  0  0  0  0  0  0
  -10.5237  -26.2459   10.3825 H   0  0  0  0  0  0  0  0  0  0  0  0
  -10.1292  -26.0062   12.0834 H   0  0  0  0  0  0  0  0  0  0  0  0
  -11.9409  -24.4623   10.4907 H   0  0  0  0  0  0  0  0  0  0  0  0
  -11.5285  -24.2133   12.1875 H   0  0  0  0  0  0  0  0  0  0  0  0
  -11.0683  -22.3251   10.6175 H   0  0  0  0  0  0  0  0  0  0  0  0
   -9.8416  -23.0552    9.7964 H   0  0  0  0  0  0  0  0  0  0  0  0
  1  2  1  0
  2  3  2  3
  3  4  1  0
  4  5  1  0
  5  6  1  0
  6  7  2  0
  7  8  1  0
  8  9  2  0
  9 10  1  0
 10 11  1  0
 11 12  1  0
 12 13  1  0
 12 14  1  0
 12 15  1  0
  2 16  1  0
 16 17  1  0
 17 18  1  0
 18 19  1  0
 19 20  1  0
 20 21  1  0
 10  6  1  0
 21 16  1  0
  1 22  1  0
  1 23  1  0
  4 24  1  0
  4 25  1  0
  5 26  1  0
  5 27  1  0
  8 28  1  0
  9 29  1  0
 11 30  1  0
 11 31  1  0
 17 32  1  0
 17 33  1  0
 18 34  1  0
 18 35  1  0
 19 36  1  0
 19 37  1  0
 20 38  1  0
 20 39  1  0
 21 40  1  0
 21 41  1  0
M  END
>  <Energy>  (1295) 
191.20796177361677

>  <compound_id>  (1295) 
17789

>  <target_id>  (1295) 
1

>  <reference_id>  (1295) 
63

>  <inspiration_ids>  (1295) 
[63, 9]

>  <energy_score>  (1295) 
228.68187841006227

>  <distance_score>  (1295) 
14.76145392280875

>  <path>  (1295) 
/opt/xchem-fragalysis-2/maxwin/BulkDock/SCRATCH/511014/C17789-P63/C17789-P63.minimised.mol

>  <scratch_subdir>  (1295) 
/opt/xchem-fragalysis-2/maxwin/BulkDock/SCRATCH/511014/C17789-P63

>  <fragmenstein_runtime>  (1295) 
19.89414930343628

>  <fragmenstein_outcome>  (1295) 
too moved

>  <fragmenstein_mode>  (1295) 
expansion

>  <fragmenstein_error>  (1295) 


$$$$
C17789-P9
     RDKit          3D

 41 42  0  0  0  0  0  0  0  0999 V2000
    2.6764  -21.6209   16.2871 N   0  0  0  0  0  0  0  0  0  0  0  0
    1.9546  -20.5018   16.7907 C   0  0  0  0  0  0  0  0  0  0  0  0
    2.3404  -19.3892   17.1419 N   0  0  0  0  0  0  0  0  0  0  0  0
    3.7699  -19.0863   16.9023 C   0  0  0  0  0  0  0  0  0  0  0  0
    4.0549  -17.5478   16.8615 C   0  0  0  0  0  0  0  0  0  0  0  0
    5.5213  -17.0772   16.6787 C   0  0  0  0  0  0  0  0  0  0  0  0
    6.0799  -16.6325   15.5541 N   0  0  0  0  0  0  0  0  0  0  0  0
    7.3635  -16.2439   15.8655 C   0  0  0  0  0  0  0  0  0  0  0  0
    7.5845  -16.3660   17.2105 C   0  0  0  0  0  0  0  0  0  0  0  0
    6.4476  -16.9629   17.7032 N   0  0  0  0  0  0  0  0  0  0  0  0
    6.3090  -17.4642   19.0544 C   0  0  0  0  0  0  0  0  0  0  0  0
    7.1343  -18.7021   19.3162 C   0  0  0  0  0  0  0  0  0  0  0  0
    8.4618  -18.4521   19.2292 F   0  0  0  0  0  0  0  0  0  0  0  0
    6.9084  -19.1556   20.5749 F   0  0  0  0  0  0  0  0  0  0  0  0
    6.8444  -19.7115   18.4705 F   0  0  0  0  0  0  0  0  0  0  0  0
    0.6431  -21.0937   16.8292 N   0  0  0  0  0  0  0  0  0  0  0  0
   -0.6784  -20.5746   17.4226 C   0  0  0  0  0  0  0  0  0  0  0  0
   -1.8045  -21.6257   17.4405 C   0  0  0  0  0  0  0  0  0  0  0  0
   -2.3425  -21.8457   16.0441 C   0  0  0  0  0  0  0  0  0  0  0  0
   -1.1637  -21.9126   15.0994 C   0  0  0  0  0  0  0  0  0  0  0  0
   -0.1531  -20.8024   15.4370 C   0  0  0  0  0  0  0  0  0  0  0  0
    1.9981  -22.3455   15.9833 H   0  0  0  0  0  0  0  0  0  0  0  0
    2.0289  -22.4303   16.2152 H   0  0  0  0  0  0  0  0  0  0  0  0
    4.1183  -19.5105   15.9519 H   0  0  0  0  0  0  0  0  0  0  0  0
    4.3646  -19.5344   17.7064 H   0  0  0  0  0  0  0  0  0  0  0  0
    3.4849  -17.1202   16.0327 H   0  0  0  0  0  0  0  0  0  0  0  0
    3.6480  -17.0807   17.7665 H   0  0  0  0  0  0  0  0  0  0  0  0
    8.0429  -15.8792   15.1068 H   0  0  0  0  0  0  0  0  0  0  0  0
    8.4476  -16.1560   17.8266 H   0  0  0  0  0  0  0  0  0  0  0  0
    5.2583  -17.6891   19.2446 H   0  0  0  0  0  0  0  0  0  0  0  0
    6.6242  -16.6615   19.7286 H   0  0  0  0  0  0  0  0  0  0  0  0
   -1.0051  -19.5655   17.1288 H   0  0  0  0  0  0  0  0  0  0  0  0
   -0.4229  -20.4255   18.4823 H   0  0  0  0  0  0  0  0  0  0  0  0
   -1.4143  -22.5696   17.8413 H   0  0  0  0  0  0  0  0  0  0  0  0
   -2.6132  -21.3006   18.1043 H   0  0  0  0  0  0  0  0  0  0  0  0
   -2.9888  -21.0057   15.7644 H   0  0  0  0  0  0  0  0  0  0  0  0
   -2.9359  -22.7619   15.9967 H   0  0  0  0  0  0  0  0  0  0  0  0
   -1.5072  -21.8095   14.0643 H   0  0  0  0  0  0  0  0  0  0  0  0
   -0.6721  -22.8894   15.1858 H   0  0  0  0  0  0  0  0  0  0  0  0
    0.6242  -20.8798   14.6625 H   0  0  0  0  0  0  0  0  0  0  0  0
   -0.5351  -19.7799   15.3048 H   0  0  0  0  0  0  0  0  0  0  0  0
  1  2  1  0
  2  3  2  3
  3  4  1  0
  4  5  1  0
  5  6  1  0
  6  7  2  0
  7  8  1  0
  8  9  2  0
  9 10  1  0
 10 11  1  0
 11 12  1  0
 12 13  1  0
 12 14  1  0
 12 15  1  0
  2 16  1  0
 16 17  1  0
 17 18  1  0
 18 19  1  0
 19 20  1  0
 20 21  1  0
 10  6  1  0
 21 16  1  0
  1 22  1  0
  1 23  1  0
  4 24  1  0
  4 25  1  0
  5 26  1  0
  5 27  1  0
  8 28  1  0
  9 29  1  0
 11 30  1  0
 11 31  1  0
 17 32  1  0
 17 33  1  0
 18 34  1  0
 18 35  1  0
 19 36  1  0
 19 37  1  0
 20 38  1  0
 20 39  1  0
 21 40  1  0
 21 41  1  0
M  END
>  <Energy>  (1296) 
144.4102526240849

>  <compound_id>  (1296) 
17789

>  <target_id>  (1296) 
1

>  <reference_id>  (1296) 
9

>  <inspiration_ids>  (1296) 
[63, 9]

>  <energy_score>  (1296) 
181.8841692605293

>  <distance_score>  (1296) 
14.79016952972355

>  <path>  (1296) 
/opt/xchem-fragalysis-2/maxwin/BulkDock/SCRATCH/511014/C17789-P9/C17789-P9.minimised.mol

>  <scratch_subdir>  (1296) 
/opt/xchem-fragalysis-2/maxwin/BulkDock/SCRATCH/511014/C17789-P9

>  <fragmenstein_runtime>  (1296) 
27.61812996864319

>  <fragmenstein_outcome>  (1296) 
too moved

>  <fragmenstein_mode>  (1296) 
expansion

>  <fragmenstein_error>  (1296) 


$$$$
C17790-P63
     RDKit          3D

 41 42  0  0  0  0  0  0  0  0999 V2000
    4.9721  -19.5055   14.0624 C   0  0  0  0  0  0  0  0  0  0  0  0
    3.5606  -20.0348   13.7592 C   0  0  0  0  0  0  0  0  0  0  0  0
    3.4307  -21.4740   13.6292 O   0  0  0  0  0  0  0  0  0  0  0  0
    3.7823  -21.9884   12.4348 C   0  0  0  0  0  0  0  0  0  0  0  0
    4.6841  -21.5718   11.7225 O   0  0  0  0  0  0  0  0  0  0  0  0
    2.8707  -23.1155   11.9452 C   0  0  0  0  0  0  0  0  0  0  0  0
    2.6103  -23.1771   10.5216 C   0  0  0  0  0  0  0  0  0  0  0  0
    2.3856  -23.2760    9.3842 N   0  0  0  0  0  0  0  0  0  0  0  0
    2.3145  -24.0211   12.7240 N   0  0  0  0  0  0  0  0  0  0  0  0
    1.3773  -24.9072   12.1737 N   0  0  0  0  0  0  0  0  0  0  0  0
    0.5612  -25.6668   12.9573 C   0  0  0  0  0  0  0  0  0  0  0  0
    0.9674  -26.0532   14.2040 N   0  0  0  0  0  0  0  0  0  0  0  0
   -0.0556  -26.7406   14.7854 C   0  0  0  0  0  0  0  0  0  0  0  0
   -1.1010  -26.8129   13.9929 N   0  0  0  0  0  0  0  0  0  0  0  0
   -0.7314  -26.1589   12.8189 C   0  0  0  0  0  0  0  0  0  0  0  0
   -1.6395  -25.9227   11.6707 C   0  0  0  0  0  0  0  0  0  0  0  0
   -1.2055  -26.0070   10.5522 O   0  0  0  0  0  0  0  0  0  0  0  0
   -2.9310  -25.5247   12.1392 N   0  0  0  0  0  0  0  0  0  0  0  0
   -3.8487  -26.7481   12.2638 C   0  0  0  0  0  0  0  0  0  0  0  0
   -4.1889  -27.6222   11.0438 C   0  0  0  0  0  0  0  0  0  0  0  0
   -5.0877  -26.8524   10.1090 C   0  0  0  0  0  0  0  0  0  0  0  0
   -4.4702  -25.4834    9.9900 C   0  0  0  0  0  0  0  0  0  0  0  0
   -4.1249  -24.9750   11.3933 C   0  0  0  0  0  0  0  0  0  0  0  0
    5.4059  -20.0553   14.9022 H   0  0  0  0  0  0  0  0  0  0  0  0
    4.9422  -18.4376   14.2952 H   0  0  0  0  0  0  0  0  0  0  0  0
    5.6348  -19.6568   13.2056 H   0  0  0  0  0  0  0  0  0  0  0  0
    3.1601  -19.5534   12.8588 H   0  0  0  0  0  0  0  0  0  0  0  0
    2.9025  -19.7593   14.5897 H   0  0  0  0  0  0  0  0  0  0  0  0
    0.9871  -24.6983   11.2415 H   0  0  0  0  0  0  0  0  0  0  0  0
    1.8666  -25.8286   14.6034 H   0  0  0  0  0  0  0  0  0  0  0  0
    0.0137  -27.1527   15.7830 H   0  0  0  0  0  0  0  0  0  0  0  0
   -3.2779  -27.4284   12.9124 H   0  0  0  0  0  0  0  0  0  0  0  0
   -4.7349  -26.5551   12.8878 H   0  0  0  0  0  0  0  0  0  0  0  0
   -4.6903  -28.5408   11.3686 H   0  0  0  0  0  0  0  0  0  0  0  0
   -3.2706  -27.9231   10.5262 H   0  0  0  0  0  0  0  0  0  0  0  0
   -5.1705  -27.3437    9.1347 H   0  0  0  0  0  0  0  0  0  0  0  0
   -6.0968  -26.7769   10.5314 H   0  0  0  0  0  0  0  0  0  0  0  0
   -3.5699  -25.5205    9.3661 H   0  0  0  0  0  0  0  0  0  0  0  0
   -5.1712  -24.8017    9.4996 H   0  0  0  0  0  0  0  0  0  0  0  0
   -3.7863  -23.9430   11.2108 H   0  0  0  0  0  0  0  0  0  0  0  0
   -5.0158  -24.8139   12.0159 H   0  0  0  0  0  0  0  0  0  0  0  0
  1  2  1  0
  2  3  1  0
  3  4  1  0
  4  5  2  0
  4  6  1  0
  6  7  1  0
  7  8  3  0
  6  9  2  3
  9 10  1  0
 10 11  1  0
 11 12  1  0
 12 13  1  0
 13 14  2  0
 14 15  1  0
 15 16  1  0
 16 17  2  0
 16 18  1  0
 18 19  1  0
 19 20  1  0
 20 21  1  0
 21 22  1  0
 22 23  1  0
 15 11  2  0
 23 18  1  0
  1 24  1  0
  1 25  1  0
  1 26  1  0
  2 27  1  0
  2 28  1  0
 10 29  1  0
 12 30  1  0
 13 31  1  0
 19 32  1  0
 19 33  1  0
 20 34  1  0
 20 35  1  0
 21 36  1  0
 21 37  1  0
 22 38  1  0
 22 39  1  0
 23 40  1  0
 23 41  1  0
M  END
>  <Energy>  (1297) 
187.40890946463654

>  <compound_id>  (1297) 
17790

>  <target_id>  (1297) 
1

>  <reference_id>  (1297) 
63

>  <inspiration_ids>  (1297) 
[63, 9]

>  <energy_score>  (1297) 
22.31190494954285

>  <distance_score>  (1297) 
14.26728436169001

>  <path>  (1297) 
/opt/xchem-fragalysis-2/maxwin/BulkDock/SCRATCH/511014/C17790-P63/C17790-P63.minimised.mol

>  <scratch_subdir>  (1297) 
/opt/xchem-fragalysis-2/maxwin/BulkDock/SCRATCH/511014/C17790-P63

>  <fragmenstein_runtime>  (1297) 
24.663213968276978

>  <fragmenstein_outcome>  (1297) 
too moved

>  <fragmenstein_mode>  (1297) 
expansion

>  <fragmenstein_error>  (1297) 


$$$$
C17790-P9
     RDKit          3D

 41 42  0  0  0  0  0  0  0  0999 V2000
    2.2173  -15.8106   18.3216 C   0  0  0  0  0  0  0  0  0  0  0  0
    1.8255  -14.6523   17.4001 C   0  0  0  0  0  0  0  0  0  0  0  0
    0.2242  -14.0657   17.2124 O   0  0  0  0  0  0  0  0  0  0  0  0
   -1.0502  -13.9546   16.5844 C   0  0  0  0  0  0  0  0  0  0  0  0
   -1.9275  -13.4805   17.3194 O   0  0  0  0  0  0  0  0  0  0  0  0
   -1.7104  -14.5672   14.8022 C   0  0  0  0  0  0  0  0  0  0  0  0
   -0.7281  -13.7670   13.4236 C   0  0  0  0  0  0  0  0  0  0  0  0
   -0.0299  -13.4188   12.5510 N   0  0  0  0  0  0  0  0  0  0  0  0
   -2.9992  -15.5898   15.0109 N   0  0  0  0  0  0  0  0  0  0  0  0
   -4.2264  -16.6651   14.2806 N   0  0  0  0  0  0  0  0  0  0  0  0
   -5.8197  -16.8949   13.5620 C   0  0  0  0  0  0  0  0  0  0  0  0
   -7.0348  -16.1820   13.8067 N   0  0  0  0  0  0  0  0  0  0  0  0
   -7.8978  -16.1551   12.7839 C   0  0  0  0  0  0  0  0  0  0  0  0
   -7.7413  -17.2191   12.0852 N   0  0  0  0  0  0  0  0  0  0  0  0
   -6.5897  -17.9507   12.5603 C   0  0  0  0  0  0  0  0  0  0  0  0
   -6.7097  -19.3559   11.4238 C   0  0  0  0  0  0  0  0  0  0  0  0
   -7.8676  -19.6710   11.2785 O   0  0  0  0  0  0  0  0  0  0  0  0
   -5.4558  -19.8727   10.7212 N   0  0  0  0  0  0  0  0  0  0  0  0
   -4.8667  -21.0488   11.4960 C   0  0  0  0  0  0  0  0  0  0  0  0
   -4.5340  -22.5585   11.0045 C   0  0  0  0  0  0  0  0  0  0  0  0
   -3.9145  -22.6805    9.6169 C   0  0  0  0  0  0  0  0  0  0  0  0
   -4.0259  -21.3158    8.9864 C   0  0  0  0  0  0  0  0  0  0  0  0
   -5.3067  -20.8046    9.5991 C   0  0  0  0  0  0  0  0  0  0  0  0
    2.4689  -15.4690   19.3321 H   0  0  0  0  0  0  0  0  0  0  0  0
    1.4393  -16.5604   18.4099 H   0  0  0  0  0  0  0  0  0  0  0  0
    3.1249  -16.2926   17.9409 H   0  0  0  0  0  0  0  0  0  0  0  0
    2.1492  -14.9441   16.4218 H   0  0  0  0  0  0  0  0  0  0  0  0
    2.4160  -13.8569   17.7916 H   0  0  0  0  0  0  0  0  0  0  0  0
   -3.7297  -17.5773   14.3437 H   0  0  0  0  0  0  0  0  0  0  0  0
   -7.3307  -15.8096   14.6966 H   0  0  0  0  0  0  0  0  0  0  0  0
   -8.7015  -15.4381   12.6896 H   0  0  0  0  0  0  0  0  0  0  0  0
   -4.0090  -20.6375   12.0264 H   0  0  0  0  0  0  0  0  0  0  0  0
   -5.6280  -21.2075   12.2629 H   0  0  0  0  0  0  0  0  0  0  0  0
   -3.8462  -23.0552   11.6916 H   0  0  0  0  0  0  0  0  0  0  0  0
   -5.4565  -23.1519   11.0428 H   0  0  0  0  0  0  0  0  0  0  0  0
   -2.8859  -23.0548    9.6296 H   0  0  0  0  0  0  0  0  0  0  0  0
   -4.4839  -23.4180    9.0357 H   0  0  0  0  0  0  0  0  0  0  0  0
   -3.2012  -20.6207    9.1271 H   0  0  0  0  0  0  0  0  0  0  0  0
   -4.1298  -21.4403    7.9010 H   0  0  0  0  0  0  0  0  0  0  0  0
   -5.9912  -21.5837    9.4014 H   0  0  0  0  0  0  0  0  0  0  0  0
   -5.6216  -20.0855    8.8230 H   0  0  0  0  0  0  0  0  0  0  0  0
  1  2  1  0
  2  3  1  0
  3  4  1  0
  4  5  2  0
  4  6  1  0
  6  7  1  0
  7  8  3  0
  6  9  2  3
  9 10  1  0
 10 11  1  0
 11 12  1  0
 12 13  1  0
 13 14  2  0
 14 15  1  0
 15 16  1  0
 16 17  2  0
 16 18  1  0
 18 19  1  0
 19 20  1  0
 20 21  1  0
 21 22  1  0
 22 23  1  0
 15 11  2  0
 23 18  1  0
  1 24  1  0
  1 25  1  0
  1 26  1  0
  2 27  1  0
  2 28  1  0
 10 29  1  0
 12 30  1  0
 13 31  1  0
 19 32  1  0
 19 33  1  0
 20 34  1  0
 20 35  1  0
 21 36  1  0
 21 37  1  0
 22 38  1  0
 22 39  1  0
 23 40  1  0
 23 41  1  0
M  END
>  <Energy>  (1298) 
751.87485473000504

>  <compound_id>  (1298) 
17790

>  <target_id>  (1298) 
1

>  <reference_id>  (1298) 
9

>  <inspiration_ids>  (1298) 
[63, 9]

>  <energy_score>  (1298) 
586.7778502149115

>  <distance_score>  (1298) 
12.859471658765521

>  <path>  (1298) 
/opt/xchem-fragalysis-2/maxwin/BulkDock/SCRATCH/511014/C17790-P9/C17790-P9.minimised.mol

>  <scratch_subdir>  (1298) 
/opt/xchem-fragalysis-2/maxwin/BulkDock/SCRATCH/511014/C17790-P9

>  <fragmenstein_runtime>  (1298) 
21.28887963294983

>  <fragmenstein_outcome>  (1298) 
too moved

>  <fragmenstein_mode>  (1298) 
expansion

>  <fragmenstein_error>  (1298) 


$$$$
C17791-P63
     RDKit          3D

 54 55  0  0  0  0  0  0  0  0999 V2000
   -4.1842  -16.2332   14.7666 C   0  0  0  0  0  0  0  0  0  0  0  0
   -3.3670  -15.6716   15.7710 N   0  0  0  0  0  0  0  0  0  0  0  0
   -3.6723  -17.6445   15.6821 C   0  0  0  0  0  0  0  0  0  0  0  0
   -5.0352  -18.4709   14.1162 C   0  0  0  0  0  0  0  0  0  0  0  0
   -5.9296  -19.9910   13.2619 C   0  0  0  0  0  0  0  0  0  0  0  0
   -7.1330  -21.4774   13.2000 C   0  0  0  0  0  0  0  0  0  0  0  0
   -8.3869  -22.1430   12.5569 N   0  0  0  0  0  0  0  0  0  0  0  0
   -9.1612  -21.5756   11.4877 C   0  0  0  0  0  0  0  0  0  0  0  0
   -9.8544  -22.7308   10.7145 C   0  0  0  0  0  0  0  0  0  0  0  0
   -9.7605  -24.0985   11.3924 C   0  0  0  0  0  0  0  0  0  0  0  0
  -10.0394  -23.9850   12.8858 C   0  0  0  0  0  0  0  0  0  0  0  0
   -9.3622  -22.7546   13.5027 C   0  0  0  0  0  0  0  0  0  0  0  0
   -1.7682  -14.6067   15.6932 C   0  0  0  0  0  0  0  0  0  0  0  0
   -1.5759  -14.3821   14.6147 O   0  0  0  0  0  0  0  0  0  0  0  0
   -0.2872  -13.8051   16.7571 N   0  0  0  0  0  0  0  0  0  0  0  0
    1.4920  -12.8665   16.1362 C   0  0  0  0  0  0  0  0  0  0  0  0
    3.0947  -11.5623   16.5420 C   0  0  0  0  0  0  0  0  0  0  0  0
    3.9659  -11.1216   14.8965 C   0  0  0  0  0  0  0  0  0  0  0  0
    4.4344  -10.1220   13.8771 N   0  0  0  0  0  0  0  0  0  0  0  0
    5.7184  -10.1731   13.9573 C   0  0  0  0  0  0  0  0  0  0  0  0
    6.1596   -8.4679   13.9619 C   0  0  0  0  0  0  0  0  0  0  0  0
    5.1485   -7.8031   13.5984 N   0  0  0  0  0  0  0  0  0  0  0  0
    4.2645   -8.7259   13.5173 C   0  0  0  0  0  0  0  0  0  0  0  0
   -4.8724  -16.0338   13.9515 H   0  0  0  0  0  0  0  0  0  0  0  0
   -4.9047  -16.3466   15.5293 H   0  0  0  0  0  0  0  0  0  0  0  0
   -3.4498  -16.6901   14.1751 H   0  0  0  0  0  0  0  0  0  0  0  0
   -2.6845  -17.9471   15.2883 H   0  0  0  0  0  0  0  0  0  0  0  0
   -3.9524  -17.9085   16.7192 H   0  0  0  0  0  0  0  0  0  0  0  0
   -4.3911  -19.1103   13.3454 H   0  0  0  0  0  0  0  0  0  0  0  0
   -5.7958  -17.7103   13.7715 H   0  0  0  0  0  0  0  0  0  0  0  0
   -6.3390  -19.3949   12.4295 H   0  0  0  0  0  0  0  0  0  0  0  0
   -5.0473  -20.5150   12.8670 H   0  0  0  0  0  0  0  0  0  0  0  0
   -7.3852  -21.7150   14.2077 H   0  0  0  0  0  0  0  0  0  0  0  0
   -6.4923  -22.2583   12.8353 H   0  0  0  0  0  0  0  0  0  0  0  0
   -9.9112  -20.9251   11.9372 H   0  0  0  0  0  0  0  0  0  0  0  0
   -8.6413  -20.9006   10.8146 H   0  0  0  0  0  0  0  0  0  0  0  0
  -10.9099  -22.5153   10.5967 H   0  0  0  0  0  0  0  0  0  0  0  0
   -9.4730  -22.8066    9.6945 H   0  0  0  0  0  0  0  0  0  0  0  0
   -8.7541  -24.5093   11.2410 H   0  0  0  0  0  0  0  0  0  0  0  0
  -10.4571  -24.8048   10.9271 H   0  0  0  0  0  0  0  0  0  0  0  0
   -9.6982  -24.8995   13.3836 H   0  0  0  0  0  0  0  0  0  0  0  0
  -11.1217  -23.9199   13.0478 H   0  0  0  0  0  0  0  0  0  0  0  0
  -10.1267  -22.0126   13.7325 H   0  0  0  0  0  0  0  0  0  0  0  0
   -8.9583  -23.0146   14.4851 H   0  0  0  0  0  0  0  0  0  0  0  0
   -0.5163  -13.9138   17.7697 H   0  0  0  0  0  0  0  0  0  0  0  0
    1.9751  -13.1861   15.2522 H   0  0  0  0  0  0  0  0  0  0  0  0
    1.3247  -12.3398   15.1047 H   0  0  0  0  0  0  0  0  0  0  0  0
    3.7823  -11.9934   17.2702 H   0  0  0  0  0  0  0  0  0  0  0  0
    2.9154  -10.6054   17.0529 H   0  0  0  0  0  0  0  0  0  0  0  0
    3.1538  -10.9109   14.2359 H   0  0  0  0  0  0  0  0  0  0  0  0
    4.5311  -12.0119   14.6442 H   0  0  0  0  0  0  0  0  0  0  0  0
    6.2140  -11.0877   13.9104 H   0  0  0  0  0  0  0  0  0  0  0  0
    6.9611   -7.9536   14.4272 H   0  0  0  0  0  0  0  0  0  0  0  0
    3.7519   -8.4207   12.6155 H   0  0  0  0  0  0  0  0  0  0  0  0
  1  2  1  0
  2  3  1  0
  3  4  1  0
  4  5  1  0
  5  6  1  0
  6  7  1  0
  7  8  1  0
  8  9  1  0
  9 10  1  0
 10 11  1  0
 11 12  1  0
  2 13  1  0
 13 14  2  0
 13 15  1  0
 15 16  1  0
 16 17  1  0
 17 18  1  0
 18 19  1  0
 19 20  1  0
 20 21  2  0
 21 22  1  0
 22 23  2  0
 12  7  1  0
 23 19  1  0
  1 24  1  0
  1 25  1  0
  1 26  1  0
  3 27  1  0
  3 28  1  0
  4 29  1  0
  4 30  1  0
  5 31  1  0
  5 32  1  0
  6 33  1  0
  6 34  1  0
  8 35  1  0
  8 36  1  0
  9 37  1  0
  9 38  1  0
 10 39  1  0
 10 40  1  0
 11 41  1  0
 11 42  1  0
 12 43  1  0
 12 44  1  0
 15 45  1  0
 16 46  1  0
 16 47  1  0
 17 48  1  0
 17 49  1  0
 18 50  1  0
 18 51  1  0
 20 52  1  0
 21 53  1  0
 23 54  1  0
M  END
>  <Energy>  (1299) 
1453.8625774816439

>  <compound_id>  (1299) 
17791

>  <target_id>  (1299) 
1

>  <reference_id>  (1299) 
63

>  <inspiration_ids>  (1299) 
[63, 9]

>  <energy_score>  (1299) 
1502.137586840623

>  <distance_score>  (1299) 
8.53488627009764

>  <path>  (1299) 
/opt/xchem-fragalysis-2/maxwin/BulkDock/SCRATCH/511014/C17791-P63/C17791-P63.minimised.mol

>  <scratch_subdir>  (1299) 
/opt/xchem-fragalysis-2/maxwin/BulkDock/SCRATCH/511014/C17791-P63

>  <fragmenstein_runtime>  (1299) 
23.80021095275879

>  <fragmenstein_outcome>  (1299) 
too moved

>  <fragmenstein_mode>  (1299) 
expansion

>  <fragmenstein_error>  (1299) 


$$$$
C17791-P9
     RDKit          3D

 54 55  0  0  0  0  0  0  0  0999 V2000
   -4.6365  -17.7837   21.9443 C   0  0  0  0  0  0  0  0  0  0  0  0
   -3.7503  -17.3435   20.8269 N   0  0  0  0  0  0  0  0  0  0  0  0
   -5.4505  -17.8381   20.0688 C   0  0  0  0  0  0  0  0  0  0  0  0
   -6.2803  -19.5219   19.7264 C   0  0  0  0  0  0  0  0  0  0  0  0
   -7.0047  -20.3780   18.2155 C   0  0  0  0  0  0  0  0  0  0  0  0
   -8.7447  -20.8424   17.5039 C   0  0  0  0  0  0  0  0  0  0  0  0
   -9.4927  -21.7870   15.9803 N   0  0  0  0  0  0  0  0  0  0  0  0
   -9.6562  -21.5733   14.5145 C   0  0  0  0  0  0  0  0  0  0  0  0
  -10.2203  -22.3682   13.2512 C   0  0  0  0  0  0  0  0  0  0  0  0
   -9.8543  -23.8102   13.1629 C   0  0  0  0  0  0  0  0  0  0  0  0
   -9.8878  -24.2737   14.5696 C   0  0  0  0  0  0  0  0  0  0  0  0
   -9.2782  -23.2105   15.5958 C   0  0  0  0  0  0  0  0  0  0  0  0
   -2.8462  -15.7412   20.6745 C   0  0  0  0  0  0  0  0  0  0  0  0
   -2.8790  -14.7651   21.3693 O   0  0  0  0  0  0  0  0  0  0  0  0
   -1.9544  -15.9166   19.1238 N   0  0  0  0  0  0  0  0  0  0  0  0
   -0.7193  -14.7237   18.1795 C   0  0  0  0  0  0  0  0  0  0  0  0
    1.2525  -14.3327   17.6228 C   0  0  0  0  0  0  0  0  0  0  0  0
    3.0584  -13.5560   17.9051 C   0  0  0  0  0  0  0  0  0  0  0  0
    3.6238  -11.9394   17.1279 N   0  0  0  0  0  0  0  0  0  0  0  0
    3.2547  -10.6555   17.1200 C   0  0  0  0  0  0  0  0  0  0  0  0
    3.5346  -10.4107   15.8018 C   0  0  0  0  0  0  0  0  0  0  0  0
    4.3430  -10.7456   14.8998 N   0  0  0  0  0  0  0  0  0  0  0  0
    4.2436  -11.7489   15.6037 C   0  0  0  0  0  0  0  0  0  0  0  0
   -3.9603  -17.7284   22.8105 H   0  0  0  0  0  0  0  0  0  0  0  0
   -5.4045  -17.0524   22.2281 H   0  0  0  0  0  0  0  0  0  0  0  0
   -4.9256  -18.8415   21.9286 H   0  0  0  0  0  0  0  0  0  0  0  0
   -5.2529  -17.5703   19.0215 H   0  0  0  0  0  0  0  0  0  0  0  0
   -6.3051  -17.2843   20.5004 H   0  0  0  0  0  0  0  0  0  0  0  0
   -5.4709  -20.2103   20.0062 H   0  0  0  0  0  0  0  0  0  0  0  0
   -7.0652  -19.6002   20.4885 H   0  0  0  0  0  0  0  0  0  0  0  0
   -6.5772  -21.3714   18.3888 H   0  0  0  0  0  0  0  0  0  0  0  0
   -6.3526  -20.0189   17.4386 H   0  0  0  0  0  0  0  0  0  0  0  0
   -9.1188  -21.2924   18.4025 H   0  0  0  0  0  0  0  0  0  0  0  0
   -9.3020  -19.9131   17.6519 H   0  0  0  0  0  0  0  0  0  0  0  0
  -10.1633  -20.6228   14.3747 H   0  0  0  0  0  0  0  0  0  0  0  0
   -8.6086  -21.8023   14.2126 H   0  0  0  0  0  0  0  0  0  0  0  0
  -11.2915  -22.3111   13.1318 H   0  0  0  0  0  0  0  0  0  0  0  0
   -9.7894  -21.8942   12.3674 H   0  0  0  0  0  0  0  0  0  0  0  0
   -8.8779  -23.9432   12.6969 H   0  0  0  0  0  0  0  0  0  0  0  0
  -10.5617  -24.3652   12.5363 H   0  0  0  0  0  0  0  0  0  0  0  0
   -9.4191  -25.2564   14.6778 H   0  0  0  0  0  0  0  0  0  0  0  0
  -10.9230  -24.5262   14.7965 H   0  0  0  0  0  0  0  0  0  0  0  0
   -9.9730  -23.4201   16.2859 H   0  0  0  0  0  0  0  0  0  0  0  0
   -8.2334  -23.2949   15.6364 H   0  0  0  0  0  0  0  0  0  0  0  0
   -2.1694  -16.8059   18.7125 H   0  0  0  0  0  0  0  0  0  0  0  0
   -0.1531  -15.6592   18.1522 H   0  0  0  0  0  0  0  0  0  0  0  0
   -1.3120  -14.2456   17.4014 H   0  0  0  0  0  0  0  0  0  0  0  0
    1.1247  -14.0602   16.5807 H   0  0  0  0  0  0  0  0  0  0  0  0
    1.6940  -15.3486   17.7588 H   0  0  0  0  0  0  0  0  0  0  0  0
    3.7264  -13.5709   18.8067 H   0  0  0  0  0  0  0  0  0  0  0  0
    3.7159  -14.3661   17.5079 H   0  0  0  0  0  0  0  0  0  0  0  0
    2.6963  -10.0330   17.8041 H   0  0  0  0  0  0  0  0  0  0  0  0
    3.0569   -9.7390   15.0405 H   0  0  0  0  0  0  0  0  0  0  0  0
    4.8312  -12.3084   14.9046 H   0  0  0  0  0  0  0  0  0  0  0  0
  1  2  1  0
  2  3  1  0
  3  4  1  0
  4  5  1  0
  5  6  1  0
  6  7  1  0
  7  8  1  0
  8  9  1  0
  9 10  1  0
 10 11  1  0
 11 12  1  0
  2 13  1  0
 13 14  2  0
 13 15  1  0
 15 16  1  0
 16 17  1  0
 17 18  1  0
 18 19  1  0
 19 20  1  0
 20 21  2  0
 21 22  1  0
 22 23  2  0
 12  7  1  0
 23 19  1  0
  1 24  1  0
  1 25  1  0
  1 26  1  0
  3 27  1  0
  3 28  1  0
  4 29  1  0
  4 30  1  0
  5 31  1  0
  5 32  1  0
  6 33  1  0
  6 34  1  0
  8 35  1  0
  8 36  1  0
  9 37  1  0
  9 38  1  0
 10 39  1  0
 10 40  1  0
 11 41  1  0
 11 42  1  0
 12 43  1  0
 12 44  1  0
 15 45  1  0
 16 46  1  0
 16 47  1  0
 17 48  1  0
 17 49  1  0
 18 50  1  0
 18 51  1  0
 20 52  1  0
 21 53  1  0
 23 54  1  0
M  END
>  <Energy>  (1300) 
1054.3092606918524

>  <compound_id>  (1300) 
17791

>  <target_id>  (1300) 
1

>  <reference_id>  (1300) 
9

>  <inspiration_ids>  (1300) 
[63, 9]

>  <energy_score>  (1300) 
1102.5842700508224

>  <distance_score>  (1300) 
9.052784027167453

>  <path>  (1300) 
/opt/xchem-fragalysis-2/maxwin/BulkDock/SCRATCH/511014/C17791-P9/C17791-P9.minimised.mol

>  <scratch_subdir>  (1300) 
/opt/xchem-fragalysis-2/maxwin/BulkDock/SCRATCH/511014/C17791-P9

>  <fragmenstein_runtime>  (1300) 
24.405579328536987

>  <fragmenstein_outcome>  (1300) 
too moved

>  <fragmenstein_mode>  (1300) 
expansion

>  <fragmenstein_error>  (1300) 


$$$$
C17793-P63
     RDKit          3D

 35 36  0  0  0  0  0  0  0  0999 V2000
   -4.9726  -16.7852   16.7866 C   0  0  0  0  0  0  0  0  0  0  0  0
   -4.3917  -17.9700   16.4225 C   0  0  0  0  0  0  0  0  0  0  0  0
   -4.9638  -18.9132   17.2293 N   0  0  0  0  0  0  0  0  0  0  0  0
   -6.0950  -18.3517   17.7863 C   0  0  0  0  0  0  0  0  0  0  0  0
   -7.2791  -19.1880   18.3913 C   0  0  0  0  0  0  0  0  0  0  0  0
   -7.4851  -20.6082   17.9378 N   0  0  0  0  0  0  0  0  0  0  0  0
   -8.9524  -21.0474   17.1747 C   0  0  0  0  0  0  0  0  0  0  0  0
   -9.2007  -22.1530   15.4789 C   0  0  0  0  0  0  0  0  0  0  0  0
   -9.9919  -22.7445   14.1546 N   0  0  0  0  0  0  0  0  0  0  0  0
  -10.0849  -24.2450   14.0997 C   0  0  0  0  0  0  0  0  0  0  0  0
  -10.8548  -24.8407   12.9225 C   0  0  0  0  0  0  0  0  0  0  0  0
  -10.1220  -24.4846   11.6522 C   0  0  0  0  0  0  0  0  0  0  0  0
  -10.0861  -22.9806   11.5827 C   0  0  0  0  0  0  0  0  0  0  0  0
   -9.5408  -22.2755   12.8367 C   0  0  0  0  0  0  0  0  0  0  0  0
   -6.0118  -17.0276   17.6583 N   0  0  0  0  0  0  0  0  0  0  0  0
   -4.7446  -15.7908   16.4277 H   0  0  0  0  0  0  0  0  0  0  0  0
   -3.6286  -18.2329   15.7044 H   0  0  0  0  0  0  0  0  0  0  0  0
   -4.7532  -19.9013   17.2213 H   0  0  0  0  0  0  0  0  0  0  0  0
   -8.1986  -18.6046   18.2748 H   0  0  0  0  0  0  0  0  0  0  0  0
   -7.0815  -19.2369   19.4689 H   0  0  0  0  0  0  0  0  0  0  0  0
   -6.7398  -20.9472   17.3519 H   0  0  0  0  0  0  0  0  0  0  0  0
   -9.4688  -20.1152   17.2607 H   0  0  0  0  0  0  0  0  0  0  0  0
   -9.2316  -21.5375   18.0768 H   0  0  0  0  0  0  0  0  0  0  0  0
   -9.5889  -22.9582   15.9974 H   0  0  0  0  0  0  0  0  0  0  0  0
   -8.2046  -22.4809   15.1511 H   0  0  0  0  0  0  0  0  0  0  0  0
  -10.5458  -24.6954   14.9704 H   0  0  0  0  0  0  0  0  0  0  0  0
   -9.1153  -24.6976   14.0507 H   0  0  0  0  0  0  0  0  0  0  0  0
  -11.8868  -24.4700   12.9084 H   0  0  0  0  0  0  0  0  0  0  0  0
  -10.9036  -25.9311   13.0243 H   0  0  0  0  0  0  0  0  0  0  0  0
  -10.6424  -24.8969   10.7811 H   0  0  0  0  0  0  0  0  0  0  0  0
   -9.1057  -24.8950   11.6535 H   0  0  0  0  0  0  0  0  0  0  0  0
   -9.5287  -22.6521   10.7001 H   0  0  0  0  0  0  0  0  0  0  0  0
  -11.1127  -22.6607   11.4374 H   0  0  0  0  0  0  0  0  0  0  0  0
   -9.9127  -21.2569   12.7057 H   0  0  0  0  0  0  0  0  0  0  0  0
   -8.4501  -22.3007   12.7677 H   0  0  0  0  0  0  0  0  0  0  0  0
  1  2  2  0
  2  3  1  0
  3  4  1  0
  4  5  1  0
  5  6  1  0
  6  7  1  0
  7  8  1  0
  8  9  1  0
  9 10  1  0
 10 11  1  0
 11 12  1  0
 12 13  1  0
 13 14  1  0
  4 15  2  0
 15  1  1  0
 14  9  1  0
  1 16  1  0
  2 17  1  0
  3 18  1  0
  5 19  1  0
  5 20  1  0
  6 21  1  0
  7 22  1  0
  7 23  1  0
  8 24  1  0
  8 25  1  0
 10 26  1  0
 10 27  1  0
 11 28  1  0
 11 29  1  0
 12 30  1  0
 12 31  1  0
 13 32  1  0
 13 33  1  0
 14 34  1  0
 14 35  1  0
M  END
>  <Energy>  (1301) 
199.14825783991466

>  <compound_id>  (1301) 
17793

>  <target_id>  (1301) 
1

>  <reference_id>  (1301) 
63

>  <inspiration_ids>  (1301) 
[63, 9]

>  <energy_score>  (1301) 
145.76114179924843

>  <distance_score>  (1301) 
14.342272658255345

>  <path>  (1301) 
/opt/xchem-fragalysis-2/maxwin/BulkDock/SCRATCH/511014/C17793-P63/C17793-P63.minimised.mol

>  <scratch_subdir>  (1301) 
/opt/xchem-fragalysis-2/maxwin/BulkDock/SCRATCH/511014/C17793-P63

>  <fragmenstein_runtime>  (1301) 
11.938292026519775

>  <fragmenstein_outcome>  (1301) 
too moved

>  <fragmenstein_mode>  (1301) 
expansion

>  <fragmenstein_error>  (1301) 


$$$$
C17793-P9
     RDKit          3D

 35 36  0  0  0  0  0  0  0  0999 V2000
   -0.7456  -15.3481   11.2170 C   0  0  0  0  0  0  0  0  0  0  0  0
    0.1098  -16.2702   10.6766 C   0  0  0  0  0  0  0  0  0  0  0  0
   -0.4753  -17.4859   10.9299 N   0  0  0  0  0  0  0  0  0  0  0  0
   -1.6936  -17.2899   11.5618 C   0  0  0  0  0  0  0  0  0  0  0  0
   -2.5863  -18.4913   12.0908 C   0  0  0  0  0  0  0  0  0  0  0  0
   -3.2212  -19.3980   11.0726 N   0  0  0  0  0  0  0  0  0  0  0  0
   -3.8694  -20.6599   11.6072 C   0  0  0  0  0  0  0  0  0  0  0  0
   -4.3101  -21.6050   10.4093 C   0  0  0  0  0  0  0  0  0  0  0  0
   -4.8655  -22.9614   10.6426 N   0  0  0  0  0  0  0  0  0  0  0  0
   -5.2903  -23.6099    9.3782 C   0  0  0  0  0  0  0  0  0  0  0  0
   -6.0677  -24.9164    9.6302 C   0  0  0  0  0  0  0  0  0  0  0  0
   -5.9264  -25.4101   11.0656 C   0  0  0  0  0  0  0  0  0  0  0  0
   -4.4787  -25.2724   11.5278 C   0  0  0  0  0  0  0  0  0  0  0  0
   -3.8717  -23.8867   11.2289 C   0  0  0  0  0  0  0  0  0  0  0  0
   -1.8443  -15.9789   11.7748 N   0  0  0  0  0  0  0  0  0  0  0  0
   -0.6250  -14.2739   11.2438 H   0  0  0  0  0  0  0  0  0  0  0  0
    1.0604  -16.1822   10.1712 H   0  0  0  0  0  0  0  0  0  0  0  0
   -0.0901  -18.3899   10.6982 H   0  0  0  0  0  0  0  0  0  0  0  0
   -3.3801  -18.0530   12.7063 H   0  0  0  0  0  0  0  0  0  0  0  0
   -1.9390  -19.0881   12.7452 H   0  0  0  0  0  0  0  0  0  0  0  0
   -2.4961  -19.6821   10.4184 H   0  0  0  0  0  0  0  0  0  0  0  0
   -4.7422  -20.3870   12.2080 H   0  0  0  0  0  0  0  0  0  0  0  0
   -3.1347  -21.1791   12.2293 H   0  0  0  0  0  0  0  0  0  0  0  0
   -5.0591  -21.0318    9.8465 H   0  0  0  0  0  0  0  0  0  0  0  0
   -3.4449  -21.7033    9.7379 H   0  0  0  0  0  0  0  0  0  0  0  0
   -4.4121  -23.8347    8.7550 H   0  0  0  0  0  0  0  0  0  0  0  0
   -5.8872  -22.9414    8.7576 H   0  0  0  0  0  0  0  0  0  0  0  0
   -5.6853  -25.6846    8.9462 H   0  0  0  0  0  0  0  0  0  0  0  0
   -7.1288  -24.7988    9.3923 H   0  0  0  0  0  0  0  0  0  0  0  0
   -6.5786  -24.8191   11.7192 H   0  0  0  0  0  0  0  0  0  0  0  0
   -6.2570  -26.4513   11.1458 H   0  0  0  0  0  0  0  0  0  0  0  0
   -3.8725  -26.0341   11.0207 H   0  0  0  0  0  0  0  0  0  0  0  0
   -4.4124  -25.4932   12.5948 H   0  0  0  0  0  0  0  0  0  0  0  0
   -3.3937  -23.4960   12.1278 H   0  0  0  0  0  0  0  0  0  0  0  0
   -3.0314  -24.0224   10.5317 H   0  0  0  0  0  0  0  0  0  0  0  0
  1  2  2  0
  2  3  1  0
  3  4  1  0
  4  5  1  0
  5  6  1  0
  6  7  1  0
  7  8  1  0
  8  9  1  0
  9 10  1  0
 10 11  1  0
 11 12  1  0
 12 13  1  0
 13 14  1  0
  4 15  2  0
 15  1  1  0
 14  9  1  0
  1 16  1  0
  2 17  1  0
  3 18  1  0
  5 19  1  0
  5 20  1  0
  6 21  1  0
  7 22  1  0
  7 23  1  0
  8 24  1  0
  8 25  1  0
 10 26  1  0
 10 27  1  0
 11 28  1  0
 11 29  1  0
 12 30  1  0
 12 31  1  0
 13 32  1  0
 13 33  1  0
 14 34  1  0
 14 35  1  0
M  END
>  <Energy>  (1302) 
48.728944351734839

>  <compound_id>  (1302) 
17793

>  <target_id>  (1302) 
1

>  <reference_id>  (1302) 
9

>  <inspiration_ids>  (1302) 
[63, 9]

>  <energy_score>  (1302) 
-4.658171688932953

>  <distance_score>  (1302) 
14.339935386815283

>  <path>  (1302) 
/opt/xchem-fragalysis-2/maxwin/BulkDock/SCRATCH/511014/C17793-P9/C17793-P9.minimised.mol

>  <scratch_subdir>  (1302) 
/opt/xchem-fragalysis-2/maxwin/BulkDock/SCRATCH/511014/C17793-P9

>  <fragmenstein_runtime>  (1302) 
11.051218748092651

>  <fragmenstein_outcome>  (1302) 
too moved

>  <fragmenstein_mode>  (1302) 
expansion

>  <fragmenstein_error>  (1302) 


$$$$
C17794-P63
     RDKit          3D

 44 45  0  0  0  0  0  0  0  0999 V2000
    5.9272  -12.1021   13.0845 C   0  0  0  0  0  0  0  0  0  0  0  0
    4.8959  -11.2035   13.8757 C   0  0  0  0  0  0  0  0  0  0  0  0
    4.7301  -10.0152   12.8953 C   0  0  0  0  0  0  0  0  0  0  0  0
    3.7764  -11.8400   15.1600 C   0  0  0  0  0  0  0  0  0  0  0  0
    3.2716  -11.5273   16.3485 C   0  0  0  0  0  0  0  0  0  0  0  0
    1.7538  -12.4911   15.8025 N   0  0  0  0  0  0  0  0  0  0  0  0
    1.1711  -12.4392   14.1678 C   0  0  0  0  0  0  0  0  0  0  0  0
    0.2268  -13.5081   13.0137 C   0  0  0  0  0  0  0  0  0  0  0  0
   -1.1746  -14.0243   13.1756 N   0  0  0  0  0  0  0  0  0  0  0  0
   -1.7316  -15.1954   12.4050 C   0  0  0  0  0  0  0  0  0  0  0  0
   -3.0829  -15.7667   13.0316 C   0  0  0  0  0  0  0  0  0  0  0  0
   -3.8517  -16.7629   12.2456 N   0  0  0  0  0  0  0  0  0  0  0  0
   -5.2371  -16.8827   12.7479 C   0  0  0  0  0  0  0  0  0  0  0  0
   -5.3036  -17.4903   14.1439 C   0  0  0  0  0  0  0  0  0  0  0  0
   -4.6603  -18.8666   14.1470 C   0  0  0  0  0  0  0  0  0  0  0  0
   -3.2710  -18.8624   13.5326 C   0  0  0  0  0  0  0  0  0  0  0  0
   -3.2309  -18.1015   12.2081 C   0  0  0  0  0  0  0  0  0  0  0  0
    2.1854  -13.0081   14.9881 N   0  0  0  0  0  0  0  0  0  0  0  0
    5.5925  -12.3386   12.0664 H   0  0  0  0  0  0  0  0  0  0  0  0
    6.2082  -13.0354   13.5668 H   0  0  0  0  0  0  0  0  0  0  0  0
    6.8608  -11.5475   12.9054 H   0  0  0  0  0  0  0  0  0  0  0  0
    5.5289  -10.6886   14.5007 H   0  0  0  0  0  0  0  0  0  0  0  0
    4.0826  -10.2151   12.0392 H   0  0  0  0  0  0  0  0  0  0  0  0
    4.5077   -9.0638   13.3669 H   0  0  0  0  0  0  0  0  0  0  0  0
    5.6986   -9.7883   12.4213 H   0  0  0  0  0  0  0  0  0  0  0  0
    3.1434  -10.8833   17.1905 H   0  0  0  0  0  0  0  0  0  0  0  0
    1.7121  -13.4134   16.2213 H   0  0  0  0  0  0  0  0  0  0  0  0
    0.8700  -14.3384   12.7181 H   0  0  0  0  0  0  0  0  0  0  0  0
    0.1484  -12.8324   12.1484 H   0  0  0  0  0  0  0  0  0  0  0  0
   -1.2785  -14.1605   14.1561 H   0  0  0  0  0  0  0  0  0  0  0  0
   -0.9856  -15.9888   12.3202 H   0  0  0  0  0  0  0  0  0  0  0  0
   -1.9440  -14.8423   11.3896 H   0  0  0  0  0  0  0  0  0  0  0  0
   -3.7258  -14.8848   13.1583 H   0  0  0  0  0  0  0  0  0  0  0  0
   -2.8699  -16.1275   14.0407 H   0  0  0  0  0  0  0  0  0  0  0  0
   -5.8207  -17.4936   12.0469 H   0  0  0  0  0  0  0  0  0  0  0  0
   -5.7190  -15.8974   12.7483 H   0  0  0  0  0  0  0  0  0  0  0  0
   -6.3410  -17.5347   14.4819 H   0  0  0  0  0  0  0  0  0  0  0  0
   -4.7951  -16.8458   14.8707 H   0  0  0  0  0  0  0  0  0  0  0  0
   -5.2858  -19.5531   13.5692 H   0  0  0  0  0  0  0  0  0  0  0  0
   -4.5852  -19.2199   15.1791 H   0  0  0  0  0  0  0  0  0  0  0  0
   -2.9320  -19.8931   13.3772 H   0  0  0  0  0  0  0  0  0  0  0  0
   -2.5660  -18.4116   14.2378 H   0  0  0  0  0  0  0  0  0  0  0  0
   -2.1949  -18.0248   11.8582 H   0  0  0  0  0  0  0  0  0  0  0  0
   -3.7506  -18.6956   11.4447 H   0  0  0  0  0  0  0  0  0  0  0  0
  1  2  1  0
  2  3  1  0
  2  4  1  0
  4  5  2  0
  5  6  1  0
  6  7  1  0
  7  8  1  0
  8  9  1  0
  9 10  1  0
 10 11  1  0
 11 12  1  0
 12 13  1  0
 13 14  1  0
 14 15  1  0
 15 16  1  0
 16 17  1  0
  7 18  2  0
 18  4  1  0
 17 12  1  0
  1 19  1  0
  1 20  1  0
  1 21  1  0
  2 22  1  0
  3 23  1  0
  3 24  1  0
  3 25  1  0
  5 26  1  0
  6 27  1  0
  8 28  1  0
  8 29  1  0
  9 30  1  0
 10 31  1  0
 10 32  1  0
 11 33  1  0
 11 34  1  0
 13 35  1  0
 13 36  1  0
 14 37  1  0
 14 38  1  0
 15 39  1  0
 15 40  1  0
 16 41  1  0
 16 42  1  0
 17 43  1  0
 17 44  1  0
M  END
>  <Energy>  (1303) 
551.1005978890521

>  <compound_id>  (1303) 
17794

>  <target_id>  (1303) 
1

>  <reference_id>  (1303) 
63

>  <inspiration_ids>  (1303) 
[63, 9]

>  <energy_score>  (1303) 
483.29901296752155

>  <distance_score>  (1303) 
13.75567422136561

>  <path>  (1303) 
/opt/xchem-fragalysis-2/maxwin/BulkDock/SCRATCH/511014/C17794-P63/C17794-P63.minimised.mol

>  <scratch_subdir>  (1303) 
/opt/xchem-fragalysis-2/maxwin/BulkDock/SCRATCH/511014/C17794-P63

>  <fragmenstein_runtime>  (1303) 
12.26772952079773

>  <fragmenstein_outcome>  (1303) 
too moved

>  <fragmenstein_mode>  (1303) 
expansion

>  <fragmenstein_error>  (1303) 


$$$$
C17794-P9
     RDKit          3D

 44 45  0  0  0  0  0  0  0  0999 V2000
   -0.0989  -17.3547   19.5735 C   0  0  0  0  0  0  0  0  0  0  0  0
   -0.9828  -18.5991   19.3897 C   0  0  0  0  0  0  0  0  0  0  0  0
   -0.3402  -19.6358   18.4612 C   0  0  0  0  0  0  0  0  0  0  0  0
   -2.4868  -18.4405   19.0775 C   0  0  0  0  0  0  0  0  0  0  0  0
   -3.4112  -17.5453   19.5581 C   0  0  0  0  0  0  0  0  0  0  0  0
   -4.6631  -17.9674   19.1160 N   0  0  0  0  0  0  0  0  0  0  0  0
   -4.5402  -19.2171   18.5351 C   0  0  0  0  0  0  0  0  0  0  0  0
   -5.7727  -20.2731   18.0757 C   0  0  0  0  0  0  0  0  0  0  0  0
   -7.2590  -19.9681   18.2150 N   0  0  0  0  0  0  0  0  0  0  0  0
   -8.6024  -20.8219   17.6175 C   0  0  0  0  0  0  0  0  0  0  0  0
   -9.3282  -21.8201   16.0091 C   0  0  0  0  0  0  0  0  0  0  0  0
   -9.1030  -22.9555   14.8529 N   0  0  0  0  0  0  0  0  0  0  0  0
   -9.0230  -22.5974   13.4297 C   0  0  0  0  0  0  0  0  0  0  0  0
  -10.3498  -22.5236   12.7349 C   0  0  0  0  0  0  0  0  0  0  0  0
  -11.1662  -23.8075   12.7811 C   0  0  0  0  0  0  0  0  0  0  0  0
  -10.4122  -24.8659   13.5405 C   0  0  0  0  0  0  0  0  0  0  0  0
   -9.8584  -24.2795   14.8504 C   0  0  0  0  0  0  0  0  0  0  0  0
   -3.2188  -19.4531   18.4229 N   0  0  0  0  0  0  0  0  0  0  0  0
    0.8988  -17.6668   19.8925 H   0  0  0  0  0  0  0  0  0  0  0  0
    0.0414  -16.7670   18.6773 H   0  0  0  0  0  0  0  0  0  0  0  0
   -0.5234  -16.7228   20.3553 H   0  0  0  0  0  0  0  0  0  0  0  0
   -0.9834  -19.0735   20.3841 H   0  0  0  0  0  0  0  0  0  0  0  0
   -0.7358  -20.6360   18.6754 H   0  0  0  0  0  0  0  0  0  0  0  0
    0.7453  -19.6815   18.5944 H   0  0  0  0  0  0  0  0  0  0  0  0
   -0.5641  -19.4332   17.4106 H   0  0  0  0  0  0  0  0  0  0  0  0
   -3.3076  -16.6998   20.2183 H   0  0  0  0  0  0  0  0  0  0  0  0
   -5.5450  -17.5203   19.3178 H   0  0  0  0  0  0  0  0  0  0  0  0
   -5.5530  -21.2196   18.5805 H   0  0  0  0  0  0  0  0  0  0  0  0
   -5.5283  -20.3511   17.0297 H   0  0  0  0  0  0  0  0  0  0  0  0
   -7.4556  -19.8593   19.2080 H   0  0  0  0  0  0  0  0  0  0  0  0
   -8.9576  -21.2282   18.5506 H   0  0  0  0  0  0  0  0  0  0  0  0
   -9.2837  -19.9735   17.7025 H   0  0  0  0  0  0  0  0  0  0  0  0
   -9.8205  -22.5486   16.5399 H   0  0  0  0  0  0  0  0  0  0  0  0
   -9.8791  -21.0747   15.4648 H   0  0  0  0  0  0  0  0  0  0  0  0
   -8.5592  -23.4061   12.8488 H   0  0  0  0  0  0  0  0  0  0  0  0
   -8.2805  -21.8533   13.1764 H   0  0  0  0  0  0  0  0  0  0  0  0
  -10.1499  -22.3331   11.6834 H   0  0  0  0  0  0  0  0  0  0  0  0
  -10.8893  -21.6855   13.1509 H   0  0  0  0  0  0  0  0  0  0  0  0
  -12.1405  -23.6276   13.2455 H   0  0  0  0  0  0  0  0  0  0  0  0
  -11.3816  -24.1618   11.7661 H   0  0  0  0  0  0  0  0  0  0  0  0
  -11.0777  -25.7095   13.7608 H   0  0  0  0  0  0  0  0  0  0  0  0
   -9.5990  -25.2765   12.9293 H   0  0  0  0  0  0  0  0  0  0  0  0
  -10.6734  -24.3197   15.5172 H   0  0  0  0  0  0  0  0  0  0  0  0
   -9.2853  -25.1082   15.2492 H   0  0  0  0  0  0  0  0  0  0  0  0
  1  2  1  0
  2  3  1  0
  2  4  1  0
  4  5  2  0
  5  6  1  0
  6  7  1  0
  7  8  1  0
  8  9  1  0
  9 10  1  0
 10 11  1  0
 11 12  1  0
 12 13  1  0
 13 14  1  0
 14 15  1  0
 15 16  1  0
 16 17  1  0
  7 18  2  0
 18  4  1  0
 17 12  1  0
  1 19  1  0
  1 20  1  0
  1 21  1  0
  2 22  1  0
  3 23  1  0
  3 24  1  0
  3 25  1  0
  5 26  1  0
  6 27  1  0
  8 28  1  0
  8 29  1  0
  9 30  1  0
 10 31  1  0
 10 32  1  0
 11 33  1  0
 11 34  1  0
 13 35  1  0
 13 36  1  0
 14 37  1  0
 14 38  1  0
 15 39  1  0
 15 40  1  0
 16 41  1  0
 16 42  1  0
 17 43  1  0
 17 44  1  0
M  END
>  <Energy>  (1304) 
245.27472158738362

>  <compound_id>  (1304) 
17794

>  <target_id>  (1304) 
1

>  <reference_id>  (1304) 
9

>  <inspiration_ids>  (1304) 
[63, 9]

>  <energy_score>  (1304) 
177.4731366658546

>  <distance_score>  (1304) 
14.37457931724444

>  <path>  (1304) 
/opt/xchem-fragalysis-2/maxwin/BulkDock/SCRATCH/511014/C17794-P9/C17794-P9.minimised.mol

>  <scratch_subdir>  (1304) 
/opt/xchem-fragalysis-2/maxwin/BulkDock/SCRATCH/511014/C17794-P9

>  <fragmenstein_runtime>  (1304) 
14.449635744094849

>  <fragmenstein_outcome>  (1304) 
too moved

>  <fragmenstein_mode>  (1304) 
expansion

>  <fragmenstein_error>  (1304) 


$$$$
C17795-P63
     RDKit          3D

 45 47  0  0  0  0  0  0  0  0999 V2000
    3.7037  -11.7714   15.4515 C   0  0  0  0  0  0  0  0  0  0  0  0
    3.9725  -11.6677   16.7957 C   0  0  0  0  0  0  0  0  0  0  0  0
    2.5456  -11.9261   16.4726 N   0  0  0  0  0  0  0  0  0  0  0  0
    1.2458  -13.4967   16.4663 C   0  0  0  0  0  0  0  0  0  0  0  0
   -0.8365  -14.3048   16.0999 C   0  0  0  0  0  0  0  0  0  0  0  0
   -2.3134  -15.5675   15.1648 N   0  0  0  0  0  0  0  0  0  0  0  0
   -3.1435  -17.4291   14.3992 C   0  0  0  0  0  0  0  0  0  0  0  0
   -3.9140  -19.1722   13.0765 C   0  0  0  0  0  0  0  0  0  0  0  0
   -4.8650  -20.8759   12.5605 C   0  0  0  0  0  0  0  0  0  0  0  0
   -4.7481  -22.5788   11.7575 C   0  0  0  0  0  0  0  0  0  0  0  0
   -5.8256  -23.7319   11.5856 C   0  0  0  0  0  0  0  0  0  0  0  0
   -7.2518  -23.5311   11.8369 C   0  0  0  0  0  0  0  0  0  0  0  0
   -8.2717  -24.4511   11.4139 N   0  0  0  0  0  0  0  0  0  0  0  0
   -9.5688  -24.3737   12.1323 C   0  0  0  0  0  0  0  0  0  0  0  0
  -10.6676  -25.1772   11.4403 C   0  0  0  0  0  0  0  0  0  0  0  0
  -10.2290  -26.6052   11.1819 C   0  0  0  0  0  0  0  0  0  0  0  0
   -8.9575  -26.5894   10.3502 C   0  0  0  0  0  0  0  0  0  0  0  0
   -7.8391  -25.8078   11.0373 C   0  0  0  0  0  0  0  0  0  0  0  0
   -7.6030  -22.2633   12.5437 C   0  0  0  0  0  0  0  0  0  0  0  0
   -6.5779  -21.0850   12.9116 C   0  0  0  0  0  0  0  0  0  0  0  0
    1.9857  -12.7340   15.2447 N   0  0  0  0  0  0  0  0  0  0  0  0
    4.1314  -11.2662   14.5773 H   0  0  0  0  0  0  0  0  0  0  0  0
    4.3928  -10.8658   17.3846 H   0  0  0  0  0  0  0  0  0  0  0  0
    2.2569  -11.1845   17.0897 H   0  0  0  0  0  0  0  0  0  0  0  0
   -1.4269  -13.8637   16.9454 H   0  0  0  0  0  0  0  0  0  0  0  0
    0.1546  -14.8449   16.0606 H   0  0  0  0  0  0  0  0  0  0  0  0
   -2.7815  -15.7331   16.0593 H   0  0  0  0  0  0  0  0  0  0  0  0
   -2.4421  -17.9645   15.0266 H   0  0  0  0  0  0  0  0  0  0  0  0
   -4.0478  -17.0133   14.8060 H   0  0  0  0  0  0  0  0  0  0  0  0
   -5.0269  -19.0379   13.2080 H   0  0  0  0  0  0  0  0  0  0  0  0
   -3.3333  -20.1392   13.2140 H   0  0  0  0  0  0  0  0  0  0  0  0
   -3.7620  -23.1304   11.7736 H   0  0  0  0  0  0  0  0  0  0  0  0
   -5.4295  -24.6565   11.1830 H   0  0  0  0  0  0  0  0  0  0  0  0
   -9.9556  -23.3532   12.1733 H   0  0  0  0  0  0  0  0  0  0  0  0
   -9.4521  -24.7372   13.1597 H   0  0  0  0  0  0  0  0  0  0  0  0
  -11.5734  -25.1703   12.0571 H   0  0  0  0  0  0  0  0  0  0  0  0
  -10.9256  -24.6964   10.4880 H   0  0  0  0  0  0  0  0  0  0  0  0
  -11.0172  -27.1488   10.6498 H   0  0  0  0  0  0  0  0  0  0  0  0
  -10.0546  -27.1268   12.1304 H   0  0  0  0  0  0  0  0  0  0  0  0
   -9.1679  -26.1392    9.3715 H   0  0  0  0  0  0  0  0  0  0  0  0
   -8.6248  -27.6167   10.1628 H   0  0  0  0  0  0  0  0  0  0  0  0
   -7.0085  -25.7731   10.3245 H   0  0  0  0  0  0  0  0  0  0  0  0
   -7.5078  -26.3699   11.9146 H   0  0  0  0  0  0  0  0  0  0  0  0
   -8.6500  -21.9903   12.5618 H   0  0  0  0  0  0  0  0  0  0  0  0
   -7.0431  -20.1476   12.5747 H   0  0  0  0  0  0  0  0  0  0  0  0
  1  2  2  0
  2  3  1  0
  3  4  1  0
  4  5  1  0
  5  6  1  0
  6  7  1  0
  7  8  1  0
  8  9  1  0
  9 10  2  0
 10 11  1  0
 11 12  2  0
 12 13  1  0
 13 14  1  0
 14 15  1  0
 15 16  1  0
 16 17  1  0
 17 18  1  0
 12 19  1  0
 19 20  2  0
  4 21  2  0
 21  1  1  0
 20  9  1  0
 18 13  1  0
  1 22  1  0
  2 23  1  0
  3 24  1  0
  5 25  1  0
  5 26  1  0
  6 27  1  0
  7 28  1  0
  7 29  1  0
  8 30  1  0
  8 31  1  0
 10 32  1  0
 11 33  1  0
 14 34  1  0
 14 35  1  0
 15 36  1  0
 15 37  1  0
 16 38  1  0
 16 39  1  0
 17 40  1  0
 17 41  1  0
 18 42  1  0
 18 43  1  0
 19 44  1  0
 20 45  1  0
M  END
>  <Energy>  (1305) 
1784.0982009711295

>  <compound_id>  (1305) 
17795

>  <target_id>  (1305) 
1

>  <reference_id>  (1305) 
63

>  <inspiration_ids>  (1305) 
[63, 9]

>  <energy_score>  (1305) 
1717.613161795894

>  <distance_score>  (1305) 
9.993198485297793

>  <path>  (1305) 
/opt/xchem-fragalysis-2/maxwin/BulkDock/SCRATCH/511014/C17795-P63/C17795-P63.minimised.mol

>  <scratch_subdir>  (1305) 
/opt/xchem-fragalysis-2/maxwin/BulkDock/SCRATCH/511014/C17795-P63

>  <fragmenstein_runtime>  (1305) 
20.76609230041504

>  <fragmenstein_outcome>  (1305) 
too moved

>  <fragmenstein_mode>  (1305) 
expansion

>  <fragmenstein_error>  (1305) 


$$$$
C17795-P9
     RDKit          3D

 45 47  0  0  0  0  0  0  0  0999 V2000
    0.5105  -13.7604   11.9839 C   0  0  0  0  0  0  0  0  0  0  0  0
    0.3236  -12.4352   12.0630 C   0  0  0  0  0  0  0  0  0  0  0  0
   -0.4681  -12.3692   13.1362 N   0  0  0  0  0  0  0  0  0  0  0  0
   -1.0679  -13.6956   13.5565 C   0  0  0  0  0  0  0  0  0  0  0  0
   -3.1324  -14.1361   13.8148 C   0  0  0  0  0  0  0  0  0  0  0  0
   -4.3737  -14.6357   12.8298 N   0  0  0  0  0  0  0  0  0  0  0  0
   -5.9028  -15.5745   12.8476 C   0  0  0  0  0  0  0  0  0  0  0  0
   -6.8858  -17.0051   12.1700 C   0  0  0  0  0  0  0  0  0  0  0  0
   -7.0137  -18.6814   11.8111 C   0  0  0  0  0  0  0  0  0  0  0  0
   -8.2346  -19.2500   11.5451 C   0  0  0  0  0  0  0  0  0  0  0  0
   -8.4372  -20.6542   11.9070 C   0  0  0  0  0  0  0  0  0  0  0  0
   -7.5146  -21.6419   12.2949 C   0  0  0  0  0  0  0  0  0  0  0  0
   -7.9165  -23.0094   12.4251 N   0  0  0  0  0  0  0  0  0  0  0  0
   -7.0475  -24.1361   11.8519 C   0  0  0  0  0  0  0  0  0  0  0  0
   -7.8971  -25.2981   11.3106 C   0  0  0  0  0  0  0  0  0  0  0  0
   -9.0066  -25.8060   12.2192 C   0  0  0  0  0  0  0  0  0  0  0  0
   -9.6931  -24.7595   13.0832 C   0  0  0  0  0  0  0  0  0  0  0  0
   -9.3552  -23.3029   12.7861 C   0  0  0  0  0  0  0  0  0  0  0  0
   -6.2754  -21.1311   12.0953 C   0  0  0  0  0  0  0  0  0  0  0  0
   -6.0566  -19.7188   12.0598 C   0  0  0  0  0  0  0  0  0  0  0  0
   -0.5023  -14.3936   12.5398 N   0  0  0  0  0  0  0  0  0  0  0  0
    1.1606  -14.3957   11.4479 H   0  0  0  0  0  0  0  0  0  0  0  0
    0.7279  -11.5520   11.5962 H   0  0  0  0  0  0  0  0  0  0  0  0
   -0.8712  -11.5149   13.4501 H   0  0  0  0  0  0  0  0  0  0  0  0
   -2.8752  -14.8163   14.7870 H   0  0  0  0  0  0  0  0  0  0  0  0
   -3.7617  -13.3369   13.7616 H   0  0  0  0  0  0  0  0  0  0  0  0
   -3.9713  -14.6200   11.9008 H   0  0  0  0  0  0  0  0  0  0  0  0
   -6.6689  -14.7920   12.9042 H   0  0  0  0  0  0  0  0  0  0  0  0
   -5.6291  -16.1634   13.7319 H   0  0  0  0  0  0  0  0  0  0  0  0
   -6.4063  -17.5023   12.9993 H   0  0  0  0  0  0  0  0  0  0  0  0
   -6.8134  -16.7123   11.1372 H   0  0  0  0  0  0  0  0  0  0  0  0
   -9.0656  -18.6030   11.3155 H   0  0  0  0  0  0  0  0  0  0  0  0
   -9.4170  -21.0143   12.1512 H   0  0  0  0  0  0  0  0  0  0  0  0
   -6.2921  -24.4964   12.5402 H   0  0  0  0  0  0  0  0  0  0  0  0
   -6.4035  -23.7834   11.0355 H   0  0  0  0  0  0  0  0  0  0  0  0
   -8.3555  -25.0063   10.3595 H   0  0  0  0  0  0  0  0  0  0  0  0
   -7.2320  -26.1327   11.0555 H   0  0  0  0  0  0  0  0  0  0  0  0
   -8.6100  -26.5951   12.8697 H   0  0  0  0  0  0  0  0  0  0  0  0
   -9.7585  -26.3097   11.5980 H   0  0  0  0  0  0  0  0  0  0  0  0
  -10.7807  -24.8859   12.9955 H   0  0  0  0  0  0  0  0  0  0  0  0
   -9.4992  -24.9780   14.1384 H   0  0  0  0  0  0  0  0  0  0  0  0
  -10.0191  -23.0005   11.9670 H   0  0  0  0  0  0  0  0  0  0  0  0
   -9.6313  -22.7042   13.6633 H   0  0  0  0  0  0  0  0  0  0  0  0
   -5.4048  -21.7513   11.9747 H   0  0  0  0  0  0  0  0  0  0  0  0
   -5.0153  -19.5185   12.2907 H   0  0  0  0  0  0  0  0  0  0  0  0
  1  2  2  0
  2  3  1  0
  3  4  1  0
  4  5  1  0
  5  6  1  0
  6  7  1  0
  7  8  1  0
  8  9  1  0
  9 10  2  0
 10 11  1  0
 11 12  2  0
 12 13  1  0
 13 14  1  0
 14 15  1  0
 15 16  1  0
 16 17  1  0
 17 18  1  0
 12 19  1  0
 19 20  2  0
  4 21  2  0
 21  1  1  0
 20  9  1  0
 18 13  1  0
  1 22  1  0
  2 23  1  0
  3 24  1  0
  5 25  1  0
  5 26  1  0
  6 27  1  0
  7 28  1  0
  7 29  1  0
  8 30  1  0
  8 31  1  0
 10 32  1  0
 11 33  1  0
 14 34  1  0
 14 35  1  0
 15 36  1  0
 15 37  1  0
 16 38  1  0
 16 39  1  0
 17 40  1  0
 17 41  1  0
 18 42  1  0
 18 43  1  0
 19 44  1  0
 20 45  1  0
M  END
>  <Energy>  (1306) 
487.68129245129438

>  <compound_id>  (1306) 
17795

>  <target_id>  (1306) 
1

>  <reference_id>  (1306) 
9

>  <inspiration_ids>  (1306) 
[63, 9]

>  <energy_score>  (1306) 
421.19625327601665

>  <distance_score>  (1306) 
11.741890582043142

>  <path>  (1306) 
/opt/xchem-fragalysis-2/maxwin/BulkDock/SCRATCH/511014/C17795-P9/C17795-P9.minimised.mol

>  <scratch_subdir>  (1306) 
/opt/xchem-fragalysis-2/maxwin/BulkDock/SCRATCH/511014/C17795-P9

>  <fragmenstein_runtime>  (1306) 
23.871225595474243

>  <fragmenstein_outcome>  (1306) 
too moved

>  <fragmenstein_mode>  (1306) 
expansion

>  <fragmenstein_error>  (1306) 


$$$$
C17796-P63
     RDKit          3D

 38 39  0  0  0  0  0  0  0  0999 V2000
   -2.9292   -8.9798   18.7367 C   0  0  0  0  0  0  0  0  0  0  0  0
   -2.4453   -9.9185   19.7138 N   0  0  0  0  0  0  0  0  0  0  0  0
   -2.0636   -9.5921   20.9811 C   0  0  0  0  0  0  0  0  0  0  0  0
   -1.8345  -10.8023   21.5782 C   0  0  0  0  0  0  0  0  0  0  0  0
   -2.0172  -11.8457   20.6896 N   0  0  0  0  0  0  0  0  0  0  0  0
   -2.3068  -11.2958   19.5288 C   0  0  0  0  0  0  0  0  0  0  0  0
   -2.4541  -11.8884   18.1203 C   0  0  0  0  0  0  0  0  0  0  0  0
   -2.0943  -13.3007   17.6459 N   0  0  0  0  0  0  0  0  0  0  0  0
   -2.7555  -14.4133   16.6530 C   0  0  0  0  0  0  0  0  0  0  0  0
   -4.2177  -15.2546   16.5026 C   0  0  0  0  0  0  0  0  0  0  0  0
   -4.9023  -15.9427   15.3675 N   0  0  0  0  0  0  0  0  0  0  0  0
   -6.2433  -16.4157   15.8195 C   0  0  0  0  0  0  0  0  0  0  0  0
   -6.1589  -17.4243   16.9769 C   0  0  0  0  0  0  0  0  0  0  0  0
   -5.0273  -18.4450   16.7836 C   0  0  0  0  0  0  0  0  0  0  0  0
   -4.5134  -18.4785   15.3456 C   0  0  0  0  0  0  0  0  0  0  0  0
   -4.2301  -17.0928   14.7506 C   0  0  0  0  0  0  0  0  0  0  0  0
   -3.9091   -9.3073   18.3817 H   0  0  0  0  0  0  0  0  0  0  0  0
   -2.2075   -8.9603   17.9260 H   0  0  0  0  0  0  0  0  0  0  0  0
   -3.0237   -7.9910   19.1916 H   0  0  0  0  0  0  0  0  0  0  0  0
   -2.0239   -8.5779   21.3483 H   0  0  0  0  0  0  0  0  0  0  0  0
   -1.5463  -10.9911   22.6034 H   0  0  0  0  0  0  0  0  0  0  0  0
   -3.4221  -11.5065   17.8060 H   0  0  0  0  0  0  0  0  0  0  0  0
   -1.7185  -11.2456   17.6843 H   0  0  0  0  0  0  0  0  0  0  0  0
   -1.0864  -13.3358   17.5058 H   0  0  0  0  0  0  0  0  0  0  0  0
   -2.1342  -14.5661   15.8008 H   0  0  0  0  0  0  0  0  0  0  0  0
   -2.2559  -15.1733   17.2103 H   0  0  0  0  0  0  0  0  0  0  0  0
   -4.9505  -14.5001   16.7728 H   0  0  0  0  0  0  0  0  0  0  0  0
   -4.1475  -16.0080   17.2868 H   0  0  0  0  0  0  0  0  0  0  0  0
   -6.7762  -16.8593   14.9684 H   0  0  0  0  0  0  0  0  0  0  0  0
   -6.8575  -15.5601   16.1263 H   0  0  0  0  0  0  0  0  0  0  0  0
   -5.9997  -16.9000   17.9278 H   0  0  0  0  0  0  0  0  0  0  0  0
   -7.1274  -17.9088   17.1125 H   0  0  0  0  0  0  0  0  0  0  0  0
   -4.1946  -18.1846   17.4476 H   0  0  0  0  0  0  0  0  0  0  0  0
   -5.3404  -19.4403   17.1168 H   0  0  0  0  0  0  0  0  0  0  0  0
   -3.6107  -19.0981   15.2924 H   0  0  0  0  0  0  0  0  0  0  0  0
   -5.2481  -18.9514   14.6908 H   0  0  0  0  0  0  0  0  0  0  0  0
   -4.5752  -17.1255   13.7068 H   0  0  0  0  0  0  0  0  0  0  0  0
   -3.1652  -16.9420   14.6370 H   0  0  0  0  0  0  0  0  0  0  0  0
  1  2  1  0
  2  3  1  0
  3  4  2  0
  4  5  1  0
  5  6  2  0
  6  7  1  0
  7  8  1  0
  8  9  1  0
  9 10  1  0
 10 11  1  0
 11 12  1  0
 12 13  1  0
 13 14  1  0
 14 15  1  0
 15 16  1  0
  6  2  1  0
 16 11  1  0
  1 17  1  0
  1 18  1  0
  1 19  1  0
  3 20  1  0
  4 21  1  0
  7 22  1  0
  7 23  1  0
  8 24  1  0
  9 25  1  0
  9 26  1  0
 10 27  1  0
 10 28  1  0
 12 29  1  0
 12 30  1  0
 13 31  1  0
 13 32  1  0
 14 33  1  0
 14 34  1  0
 15 35  1  0
 15 36  1  0
 16 37  1  0
 16 38  1  0
M  END
>  <Energy>  (1307) 
140.3567533824571

>  <compound_id>  (1307) 
17796

>  <target_id>  (1307) 
1

>  <reference_id>  (1307) 
63

>  <inspiration_ids>  (1307) 
[63, 9]

>  <energy_score>  (1307) 
77.70143455813047

>  <distance_score>  (1307) 
14.897097868413178

>  <path>  (1307) 
/opt/xchem-fragalysis-2/maxwin/BulkDock/SCRATCH/511014/C17796-P63/C17796-P63.minimised.mol

>  <scratch_subdir>  (1307) 
/opt/xchem-fragalysis-2/maxwin/BulkDock/SCRATCH/511014/C17796-P63

>  <fragmenstein_runtime>  (1307) 
16.445476531982422

>  <fragmenstein_outcome>  (1307) 
too moved

>  <fragmenstein_mode>  (1307) 
expansion

>  <fragmenstein_error>  (1307) 


$$$$
C17796-P9
     RDKit          3D

 38 39  0  0  0  0  0  0  0  0999 V2000
   -7.3143  -10.1972   16.5561 C   0  0  0  0  0  0  0  0  0  0  0  0
   -6.1774  -10.4429   17.4077 N   0  0  0  0  0  0  0  0  0  0  0  0
   -5.0665   -9.6305   17.5010 C   0  0  0  0  0  0  0  0  0  0  0  0
   -4.2625  -10.2331   18.4309 C   0  0  0  0  0  0  0  0  0  0  0  0
   -4.8891  -11.3556   18.9265 N   0  0  0  0  0  0  0  0  0  0  0  0
   -6.0378  -11.5184   18.2740 C   0  0  0  0  0  0  0  0  0  0  0  0
   -7.1290  -12.6375   18.5736 C   0  0  0  0  0  0  0  0  0  0  0  0
   -7.3608  -13.7017   17.5487 N   0  0  0  0  0  0  0  0  0  0  0  0
   -8.0817  -14.9512   17.9319 C   0  0  0  0  0  0  0  0  0  0  0  0
   -9.6165  -14.9548   17.6458 C   0  0  0  0  0  0  0  0  0  0  0  0
  -10.2252  -16.2945   17.5296 N   0  0  0  0  0  0  0  0  0  0  0  0
  -10.0278  -16.8640   16.1848 C   0  0  0  0  0  0  0  0  0  0  0  0
  -10.9487  -16.3384   15.0834 C   0  0  0  0  0  0  0  0  0  0  0  0
  -12.4095  -16.3903   15.4978 C   0  0  0  0  0  0  0  0  0  0  0  0
  -12.5916  -15.7189   16.8482 C   0  0  0  0  0  0  0  0  0  0  0  0
  -11.6475  -16.2871   17.9057 C   0  0  0  0  0  0  0  0  0  0  0  0
   -8.1901  -10.0317   17.1883 H   0  0  0  0  0  0  0  0  0  0  0  0
   -7.4652  -11.0639   15.9097 H   0  0  0  0  0  0  0  0  0  0  0  0
   -7.1277   -9.3116   15.9431 H   0  0  0  0  0  0  0  0  0  0  0  0
   -4.9432   -8.7414   16.9003 H   0  0  0  0  0  0  0  0  0  0  0  0
   -3.2853   -9.9296   18.7828 H   0  0  0  0  0  0  0  0  0  0  0  0
   -8.0778  -12.1285   18.7790 H   0  0  0  0  0  0  0  0  0  0  0  0
   -6.8074  -13.1174   19.5060 H   0  0  0  0  0  0  0  0  0  0  0  0
   -7.7861  -13.2937   16.7220 H   0  0  0  0  0  0  0  0  0  0  0  0
   -7.8901  -15.1996   18.9822 H   0  0  0  0  0  0  0  0  0  0  0  0
   -7.6110  -15.7452   17.3419 H   0  0  0  0  0  0  0  0  0  0  0  0
  -10.0715  -14.4018   18.4786 H   0  0  0  0  0  0  0  0  0  0  0  0
   -9.8284  -14.3582   16.7499 H   0  0  0  0  0  0  0  0  0  0  0  0
   -8.9852  -16.7508   15.8674 H   0  0  0  0  0  0  0  0  0  0  0  0
  -10.1927  -17.9327   16.2545 H   0  0  0  0  0  0  0  0  0  0  0  0
  -10.6782  -15.3047   14.8370 H   0  0  0  0  0  0  0  0  0  0  0  0
  -10.8029  -16.9211   14.1698 H   0  0  0  0  0  0  0  0  0  0  0  0
  -12.7613  -17.4215   15.5595 H   0  0  0  0  0  0  0  0  0  0  0  0
  -13.0287  -15.8888   14.7459 H   0  0  0  0  0  0  0  0  0  0  0  0
  -12.4203  -14.6400   16.7450 H   0  0  0  0  0  0  0  0  0  0  0  0
  -13.6292  -15.8400   17.1806 H   0  0  0  0  0  0  0  0  0  0  0  0
  -11.7851  -15.7371   18.8457 H   0  0  0  0  0  0  0  0  0  0  0  0
  -11.9685  -17.3013   18.1489 H   0  0  0  0  0  0  0  0  0  0  0  0
  1  2  1  0
  2  3  1  0
  3  4  2  0
  4  5  1  0
  5  6  2  0
  6  7  1  0
  7  8  1  0
  8  9  1  0
  9 10  1  0
 10 11  1  0
 11 12  1  0
 12 13  1  0
 13 14  1  0
 14 15  1  0
 15 16  1  0
  6  2  1  0
 16 11  1  0
  1 17  1  0
  1 18  1  0
  1 19  1  0
  3 20  1  0
  4 21  1  0
  7 22  1  0
  7 23  1  0
  8 24  1  0
  9 25  1  0
  9 26  1  0
 10 27  1  0
 10 28  1  0
 12 29  1  0
 12 30  1  0
 13 31  1  0
 13 32  1  0
 14 33  1  0
 14 34  1  0
 15 35  1  0
 15 36  1  0
 16 37  1  0
 16 38  1  0
M  END
>  <Energy>  (1308) 
48.871309648647539

>  <compound_id>  (1308) 
17796

>  <target_id>  (1308) 
1

>  <reference_id>  (1308) 
9

>  <inspiration_ids>  (1308) 
[63, 9]

>  <energy_score>  (1308) 
-13.784009175677966

>  <distance_score>  (1308) 
14.771659886737716

>  <path>  (1308) 
/opt/xchem-fragalysis-2/maxwin/BulkDock/SCRATCH/511014/C17796-P9/C17796-P9.minimised.mol

>  <scratch_subdir>  (1308) 
/opt/xchem-fragalysis-2/maxwin/BulkDock/SCRATCH/511014/C17796-P9

>  <fragmenstein_runtime>  (1308) 
11.852948427200317

>  <fragmenstein_outcome>  (1308) 
too moved

>  <fragmenstein_mode>  (1308) 
expansion

>  <fragmenstein_error>  (1308) 


$$$$
C11807-P63
     RDKit          3D

 45 47  0  0  0  0  0  0  0  0999 V2000
   -9.4436  -18.6561   21.5496 C   0  0  0  0  0  0  0  0  0  0  0  0
   -9.1716  -18.0007   20.3594 C   0  0  0  0  0  0  0  0  0  0  0  0
   -8.9360  -18.7419   19.1978 C   0  0  0  0  0  0  0  0  0  0  0  0
   -8.9609  -20.1765   19.1712 C   0  0  0  0  0  0  0  0  0  0  0  0
   -8.5387  -20.9263   17.6828 C   0  0  0  0  0  0  0  0  0  0  0  0
   -9.3863  -21.8038   16.0156 C   0  0  0  0  0  0  0  0  0  0  0  0
   -9.1849  -22.5969   14.4257 N   0  0  0  0  0  0  0  0  0  0  0  0
  -10.0133  -22.0029   13.3111 C   0  0  0  0  0  0  0  0  0  0  0  0
   -9.3955  -22.4061   11.9740 C   0  0  0  0  0  0  0  0  0  0  0  0
   -9.8486  -23.8168   11.6541 C   0  0  0  0  0  0  0  0  0  0  0  0
   -9.5775  -24.7288   12.8368 C   0  0  0  0  0  0  0  0  0  0  0  0
   -9.6831  -24.0440   14.2488 C   0  0  0  0  0  0  0  0  0  0  0  0
   -6.9979  -20.4018   17.7217 N   0  0  0  0  0  0  0  0  0  0  0  0
   -5.9302  -20.7082   18.6803 C   0  0  0  0  0  0  0  0  0  0  0  0
   -4.6510  -19.7224   18.5925 C   0  0  0  0  0  0  0  0  0  0  0  0
   -3.4822  -19.9322   17.9922 N   0  0  0  0  0  0  0  0  0  0  0  0
   -2.5989  -18.9962   18.4734 C   0  0  0  0  0  0  0  0  0  0  0  0
   -3.2474  -18.0991   19.2790 C   0  0  0  0  0  0  0  0  0  0  0  0
   -4.5529  -18.5380   19.3118 N   0  0  0  0  0  0  0  0  0  0  0  0
   -9.2601  -20.7900   20.3994 C   0  0  0  0  0  0  0  0  0  0  0  0
   -9.4955  -20.0443   21.5661 C   0  0  0  0  0  0  0  0  0  0  0  0
   -9.6335  -18.0909   22.4575 H   0  0  0  0  0  0  0  0  0  0  0  0
   -9.1475  -16.9150   20.3255 H   0  0  0  0  0  0  0  0  0  0  0  0
   -8.7371  -18.1807   18.2849 H   0  0  0  0  0  0  0  0  0  0  0  0
   -9.1686  -20.1073   17.4139 H   0  0  0  0  0  0  0  0  0  0  0  0
   -9.7407  -22.7218   16.2954 H   0  0  0  0  0  0  0  0  0  0  0  0
   -9.9047  -20.9856   15.5744 H   0  0  0  0  0  0  0  0  0  0  0  0
  -10.2334  -20.9367   13.3530 H   0  0  0  0  0  0  0  0  0  0  0  0
  -11.0137  -22.4323   13.2646 H   0  0  0  0  0  0  0  0  0  0  0  0
   -8.3070  -22.3578   12.0318 H   0  0  0  0  0  0  0  0  0  0  0  0
   -9.7008  -21.7313   11.1741 H   0  0  0  0  0  0  0  0  0  0  0  0
   -9.3481  -24.1922   10.7551 H   0  0  0  0  0  0  0  0  0  0  0  0
  -10.9236  -23.8169   11.4340 H   0  0  0  0  0  0  0  0  0  0  0  0
   -8.6078  -25.1947   12.6734 H   0  0  0  0  0  0  0  0  0  0  0  0
  -10.2860  -25.5677   12.8053 H   0  0  0  0  0  0  0  0  0  0  0  0
   -9.2767  -24.7566   14.9426 H   0  0  0  0  0  0  0  0  0  0  0  0
  -10.7427  -24.1158   14.4081 H   0  0  0  0  0  0  0  0  0  0  0  0
   -7.1021  -19.4007   17.7630 H   0  0  0  0  0  0  0  0  0  0  0  0
   -5.5569  -21.7241   18.5170 H   0  0  0  0  0  0  0  0  0  0  0  0
   -6.2897  -20.6346   19.7118 H   0  0  0  0  0  0  0  0  0  0  0  0
   -1.5514  -19.0370   18.2106 H   0  0  0  0  0  0  0  0  0  0  0  0
   -2.9093  -17.2465   19.8486 H   0  0  0  0  0  0  0  0  0  0  0  0
   -5.3018  -18.1540   19.8707 H   0  0  0  0  0  0  0  0  0  0  0  0
   -9.4095  -21.8512   20.5091 H   0  0  0  0  0  0  0  0  0  0  0  0
   -9.7381  -20.5667   22.4893 H   0  0  0  0  0  0  0  0  0  0  0  0
  1  2  2  0
  2  3  1  0
  3  4  2  0
  4  5  1  0
  5  6  1  0
  6  7  1  0
  7  8  1  0
  8  9  1  0
  9 10  1  0
 10 11  1  0
 11 12  1  0
  5 13  1  0
 13 14  1  0
 14 15  1  0
 15 16  2  0
 16 17  1  0
 17 18  2  0
 18 19  1  0
  4 20  1  0
 20 21  2  0
 21  1  1  0
 12  7  1  0
 19 15  1  0
  1 22  1  0
  2 23  1  0
  3 24  1  0
  5 25  1  0
  6 26  1  0
  6 27  1  0
  8 28  1  0
  8 29  1  0
  9 30  1  0
  9 31  1  0
 10 32  1  0
 10 33  1  0
 11 34  1  0
 11 35  1  0
 12 36  1  0
 12 37  1  0
 13 38  1  0
 14 39  1  0
 14 40  1  0
 17 41  1  0
 18 42  1  0
 19 43  1  0
 20 44  1  0
 21 45  1  0
M  END
>  <Energy>  (1309) 
313.16042703504877

>  <compound_id>  (1309) 
11807

>  <target_id>  (1309) 
1

>  <reference_id>  (1309) 
63

>  <inspiration_ids>  (1309) 
[63, 9]

>  <energy_score>  (1309) 
198.93987592504925

>  <distance_score>  (1309) 
14.309370384581346

>  <path>  (1309) 
/opt/xchem-fragalysis-2/maxwin/BulkDock/SCRATCH/511014/C11807-P63/C11807-P63.minimised.mol

>  <scratch_subdir>  (1309) 
/opt/xchem-fragalysis-2/maxwin/BulkDock/SCRATCH/511014/C11807-P63

>  <fragmenstein_runtime>  (1309) 
12.80868649482727

>  <fragmenstein_outcome>  (1309) 
too moved

>  <fragmenstein_mode>  (1309) 
expansion

>  <fragmenstein_error>  (1309) 


$$$$
C11807-P9
     RDKit          3D

 45 47  0  0  0  0  0  0  0  0999 V2000
  -12.7447  -14.2317   10.0913 C   0  0  0  0  0  0  0  0  0  0  0  0
  -12.2141  -14.7937    8.9320 C   0  0  0  0  0  0  0  0  0  0  0  0
  -10.9236  -15.3242    8.9398 C   0  0  0  0  0  0  0  0  0  0  0  0
  -10.1474  -15.3001   10.1097 C   0  0  0  0  0  0  0  0  0  0  0  0
   -8.7452  -15.8995   10.1437 C   0  0  0  0  0  0  0  0  0  0  0  0
   -8.9196  -17.4383   10.0810 C   0  0  0  0  0  0  0  0  0  0  0  0
   -7.7699  -18.2457   10.4806 N   0  0  0  0  0  0  0  0  0  0  0  0
   -7.3229  -18.0678   11.8715 C   0  0  0  0  0  0  0  0  0  0  0  0
   -6.2930  -19.3463   12.3144 C   0  0  0  0  0  0  0  0  0  0  0  0
   -6.9489  -20.6818   12.2296 C   0  0  0  0  0  0  0  0  0  0  0  0
   -8.2755  -20.4007   11.5713 C   0  0  0  0  0  0  0  0  0  0  0  0
   -8.0681  -19.6504   10.2543 C   0  0  0  0  0  0  0  0  0  0  0  0
   -7.8224  -15.4019    9.0498 N   0  0  0  0  0  0  0  0  0  0  0  0
   -7.6590  -13.9316    9.0914 C   0  0  0  0  0  0  0  0  0  0  0  0
   -6.6297  -13.2991    8.1419 C   0  0  0  0  0  0  0  0  0  0  0  0
   -6.4986  -11.9915    7.9160 N   0  0  0  0  0  0  0  0  0  0  0  0
   -5.4349  -11.8376    7.0575 C   0  0  0  0  0  0  0  0  0  0  0  0
   -4.8925  -13.0615    6.7694 C   0  0  0  0  0  0  0  0  0  0  0  0
   -5.5952  -13.9653    7.5273 N   0  0  0  0  0  0  0  0  0  0  0  0
  -10.6942  -14.7279   11.2697 C   0  0  0  0  0  0  0  0  0  0  0  0
  -11.9852  -14.1971   11.2590 C   0  0  0  0  0  0  0  0  0  0  0  0
  -13.7493  -13.8178   10.0826 H   0  0  0  0  0  0  0  0  0  0  0  0
  -12.8035  -14.8185    8.0193 H   0  0  0  0  0  0  0  0  0  0  0  0
  -10.5180  -15.7545    8.0261 H   0  0  0  0  0  0  0  0  0  0  0  0
   -8.2843  -15.6263   11.1011 H   0  0  0  0  0  0  0  0  0  0  0  0
   -9.7873  -17.7220   10.6629 H   0  0  0  0  0  0  0  0  0  0  0  0
   -9.1731  -17.6879    9.0396 H   0  0  0  0  0  0  0  0  0  0  0  0
   -6.8127  -17.1086   12.0335 H   0  0  0  0  0  0  0  0  0  0  0  0
   -8.2200  -17.9249   12.4775 H   0  0  0  0  0  0  0  0  0  0  0  0
   -5.4162  -19.5151   11.6828 H   0  0  0  0  0  0  0  0  0  0  0  0
   -5.8403  -19.1818   13.2953 H   0  0  0  0  0  0  0  0  0  0  0  0
   -7.0433  -21.1869   13.1875 H   0  0  0  0  0  0  0  0  0  0  0  0
   -6.2698  -21.3482   11.6943 H   0  0  0  0  0  0  0  0  0  0  0  0
   -8.8780  -21.3019   11.6066 H   0  0  0  0  0  0  0  0  0  0  0  0
   -8.9291  -19.7439   12.1334 H   0  0  0  0  0  0  0  0  0  0  0  0
   -7.1719  -20.0052    9.7463 H   0  0  0  0  0  0  0  0  0  0  0  0
   -8.9218  -19.7751    9.5829 H   0  0  0  0  0  0  0  0  0  0  0  0
   -6.9242  -15.8347    9.2704 H   0  0  0  0  0  0  0  0  0  0  0  0
   -7.3928  -13.6300   10.1110 H   0  0  0  0  0  0  0  0  0  0  0  0
   -8.6146  -13.4531    8.8482 H   0  0  0  0  0  0  0  0  0  0  0  0
   -5.1546  -10.8658    6.6736 H   0  0  0  0  0  0  0  0  0  0  0  0
   -4.1119  -13.3709    6.0919 H   0  0  0  0  0  0  0  0  0  0  0  0
   -5.4660  -14.9671    7.5568 H   0  0  0  0  0  0  0  0  0  0  0  0
  -10.1165  -14.6909   12.1908 H   0  0  0  0  0  0  0  0  0  0  0  0
  -12.3977  -13.7541   12.1615 H   0  0  0  0  0  0  0  0  0  0  0  0
  1  2  2  0
  2  3  1  0
  3  4  2  0
  4  5  1  0
  5  6  1  0
  6  7  1  0
  7  8  1  0
  8  9  1  0
  9 10  1  0
 10 11  1  0
 11 12  1  0
  5 13  1  0
 13 14  1  0
 14 15  1  0
 15 16  2  0
 16 17  1  0
 17 18  2  0
 18 19  1  0
  4 20  1  0
 20 21  2  0
 21  1  1  0
 12  7  1  0
 19 15  1  0
  1 22  1  0
  2 23  1  0
  3 24  1  0
  5 25  1  0
  6 26  1  0
  6 27  1  0
  8 28  1  0
  8 29  1  0
  9 30  1  0
  9 31  1  0
 10 32  1  0
 10 33  1  0
 11 34  1  0
 11 35  1  0
 12 36  1  0
 12 37  1  0
 13 38  1  0
 14 39  1  0
 14 40  1  0
 17 41  1  0
 18 42  1  0
 19 43  1  0
 20 44  1  0
 21 45  1  0
M  END
>  <Energy>  (1310) 
95.137309706239435

>  <compound_id>  (1310) 
11807

>  <target_id>  (1310) 
1

>  <reference_id>  (1310) 
9

>  <inspiration_ids>  (1310) 
[63, 9]

>  <energy_score>  (1310) 
-19.083241403754755

>  <distance_score>  (1310) 
15.762202484655324

>  <path>  (1310) 
/opt/xchem-fragalysis-2/maxwin/BulkDock/SCRATCH/511014/C11807-P9/C11807-P9.minimised.mol

>  <scratch_subdir>  (1310) 
/opt/xchem-fragalysis-2/maxwin/BulkDock/SCRATCH/511014/C11807-P9

>  <fragmenstein_runtime>  (1310) 
20.333516597747803

>  <fragmenstein_outcome>  (1310) 
too moved

>  <fragmenstein_mode>  (1310) 
expansion

>  <fragmenstein_error>  (1310) 


$$$$
C17797-P63
     RDKit          3D

 41 42  0  0  0  0  0  0  0  0999 V2000
    1.8641  -22.1188   11.3227 C   0  0  0  0  0  0  0  0  0  0  0  0
    1.4151  -21.1750   12.4244 C   0  0  0  0  0  0  0  0  0  0  0  0
    0.9073  -19.9172   11.9134 N   0  0  0  0  0  0  0  0  0  0  0  0
    1.6563  -18.7691   11.7785 C   0  0  0  0  0  0  0  0  0  0  0  0
    0.7929  -17.8294   11.2859 C   0  0  0  0  0  0  0  0  0  0  0  0
   -0.4538  -18.3857   11.1091 N   0  0  0  0  0  0  0  0  0  0  0  0
   -0.3748  -19.6756   11.4466 C   0  0  0  0  0  0  0  0  0  0  0  0
   -1.4760  -20.7497   11.0985 C   0  0  0  0  0  0  0  0  0  0  0  0
   -1.7676  -21.9306   11.9918 N   0  0  0  0  0  0  0  0  0  0  0  0
   -2.7262  -22.8968   11.3118 C   0  0  0  0  0  0  0  0  0  0  0  0
   -2.8852  -24.2956   12.0139 C   0  0  0  0  0  0  0  0  0  0  0  0
   -3.8107  -25.2984   11.4022 N   0  0  0  0  0  0  0  0  0  0  0  0
   -5.1500  -24.7807   11.1556 C   0  0  0  0  0  0  0  0  0  0  0  0
   -6.1290  -25.7888   10.5323 C   0  0  0  0  0  0  0  0  0  0  0  0
   -5.8122  -27.2467   10.8278 C   0  0  0  0  0  0  0  0  0  0  0  0
   -5.0659  -27.3991   12.1366 C   0  0  0  0  0  0  0  0  0  0  0  0
   -3.7880  -26.5540   12.1709 C   0  0  0  0  0  0  0  0  0  0  0  0
    2.2586  -23.0439   11.7543 H   0  0  0  0  0  0  0  0  0  0  0  0
    1.0371  -22.3813   10.6559 H   0  0  0  0  0  0  0  0  0  0  0  0
    2.6517  -21.6641   10.7124 H   0  0  0  0  0  0  0  0  0  0  0  0
    0.6420  -21.6285   13.0504 H   0  0  0  0  0  0  0  0  0  0  0  0
    2.2604  -20.9441   13.0834 H   0  0  0  0  0  0  0  0  0  0  0  0
    2.6970  -18.7196   12.0653 H   0  0  0  0  0  0  0  0  0  0  0  0
    0.9799  -16.7901   11.0568 H   0  0  0  0  0  0  0  0  0  0  0  0
   -2.4134  -20.1957   10.9596 H   0  0  0  0  0  0  0  0  0  0  0  0
   -1.1796  -21.1345   10.1139 H   0  0  0  0  0  0  0  0  0  0  0  0
   -2.2770  -21.5875   12.8129 H   0  0  0  0  0  0  0  0  0  0  0  0
   -3.6877  -22.3934   11.1998 H   0  0  0  0  0  0  0  0  0  0  0  0
   -2.3468  -23.0940   10.3012 H   0  0  0  0  0  0  0  0  0  0  0  0
   -3.1060  -24.1531   13.0721 H   0  0  0  0  0  0  0  0  0  0  0  0
   -1.8838  -24.7490   11.9968 H   0  0  0  0  0  0  0  0  0  0  0  0
   -5.0689  -23.9492   10.4526 H   0  0  0  0  0  0  0  0  0  0  0  0
   -5.5890  -24.3767   12.0631 H   0  0  0  0  0  0  0  0  0  0  0  0
   -6.1531  -25.6577    9.4433 H   0  0  0  0  0  0  0  0  0  0  0  0
   -7.1394  -25.5583   10.8925 H   0  0  0  0  0  0  0  0  0  0  0  0
   -5.1917  -27.6499   10.0172 H   0  0  0  0  0  0  0  0  0  0  0  0
   -6.7339  -27.8391   10.8369 H   0  0  0  0  0  0  0  0  0  0  0  0
   -5.7180  -27.1246   12.9677 H   0  0  0  0  0  0  0  0  0  0  0  0
   -4.8061  -28.4530   12.2920 H   0  0  0  0  0  0  0  0  0  0  0  0
   -2.9671  -27.1582   11.7638 H   0  0  0  0  0  0  0  0  0  0  0  0
   -3.5350  -26.3858   13.2249 H   0  0  0  0  0  0  0  0  0  0  0  0
  1  2  1  0
  2  3  1  0
  3  4  1  0
  4  5  2  0
  5  6  1  0
  6  7  2  0
  7  8  1  0
  8  9  1  0
  9 10  1  0
 10 11  1  0
 11 12  1  0
 12 13  1  0
 13 14  1  0
 14 15  1  0
 15 16  1  0
 16 17  1  0
  7  3  1  0
 17 12  1  0
  1 18  1  0
  1 19  1  0
  1 20  1  0
  2 21  1  0
  2 22  1  0
  4 23  1  0
  5 24  1  0
  8 25  1  0
  8 26  1  0
  9 27  1  0
 10 28  1  0
 10 29  1  0
 11 30  1  0
 11 31  1  0
 13 32  1  0
 13 33  1  0
 14 34  1  0
 14 35  1  0
 15 36  1  0
 15 37  1  0
 16 38  1  0
 16 39  1  0
 17 40  1  0
 17 41  1  0
M  END
>  <Energy>  (1311) 
46.204763546702097

>  <compound_id>  (1311) 
17797

>  <target_id>  (1311) 
1

>  <reference_id>  (1311) 
63

>  <inspiration_ids>  (1311) 
[63, 9]

>  <energy_score>  (1311) 
-15.070514308546706

>  <distance_score>  (1311) 
14.576138912401149

>  <path>  (1311) 
/opt/xchem-fragalysis-2/maxwin/BulkDock/SCRATCH/511014/C17797-P63/C17797-P63.minimised.mol

>  <scratch_subdir>  (1311) 
/opt/xchem-fragalysis-2/maxwin/BulkDock/SCRATCH/511014/C17797-P63

>  <fragmenstein_runtime>  (1311) 
22.984020709991455

>  <fragmenstein_outcome>  (1311) 
too moved

>  <fragmenstein_mode>  (1311) 
expansion

>  <fragmenstein_error>  (1311) 


$$$$
C17797-P9
     RDKit          3D

 41 42  0  0  0  0  0  0  0  0999 V2000
    3.0774   -6.3135   16.5125 C   0  0  0  0  0  0  0  0  0  0  0  0
    2.6086   -7.7828   16.3285 C   0  0  0  0  0  0  0  0  0  0  0  0
    3.0476   -8.5971   14.7939 N   0  0  0  0  0  0  0  0  0  0  0  0
    4.3599   -8.2810   13.7251 C   0  0  0  0  0  0  0  0  0  0  0  0
    4.9947   -9.4511   13.3939 C   0  0  0  0  0  0  0  0  0  0  0  0
    4.4281  -10.5365   14.0331 N   0  0  0  0  0  0  0  0  0  0  0  0
    3.0626  -10.3664   14.1723 C   0  0  0  0  0  0  0  0  0  0  0  0
    1.4417  -11.7648   13.8281 C   0  0  0  0  0  0  0  0  0  0  0  0
   -0.2834  -12.6469   13.2575 N   0  0  0  0  0  0  0  0  0  0  0  0
   -1.4543  -14.0192   14.1156 C   0  0  0  0  0  0  0  0  0  0  0  0
   -3.2019  -14.8890   14.9276 C   0  0  0  0  0  0  0  0  0  0  0  0
   -4.7388  -14.8729   14.5160 N   0  0  0  0  0  0  0  0  0  0  0  0
   -5.0248  -15.6142   13.2662 C   0  0  0  0  0  0  0  0  0  0  0  0
   -6.5215  -15.6777   12.9047 C   0  0  0  0  0  0  0  0  0  0  0  0
   -7.4289  -15.9640   14.0936 C   0  0  0  0  0  0  0  0  0  0  0  0
   -6.6158  -16.4847   15.2609 C   0  0  0  0  0  0  0  0  0  0  0  0
   -5.5198  -15.4799   15.6428 C   0  0  0  0  0  0  0  0  0  0  0  0
    3.0303   -5.7136   15.6023 H   0  0  0  0  0  0  0  0  0  0  0  0
    2.4244   -5.8355   17.2519 H   0  0  0  0  0  0  0  0  0  0  0  0
    4.0901   -6.2193   16.9121 H   0  0  0  0  0  0  0  0  0  0  0  0
    2.8326   -8.4727   17.1597 H   0  0  0  0  0  0  0  0  0  0  0  0
    1.4958   -7.7913   16.3322 H   0  0  0  0  0  0  0  0  0  0  0  0
    4.3827   -7.3172   13.3252 H   0  0  0  0  0  0  0  0  0  0  0  0
    5.8818   -9.5680   12.7864 H   0  0  0  0  0  0  0  0  0  0  0  0
    1.2868  -11.3625   12.7676 H   0  0  0  0  0  0  0  0  0  0  0  0
    1.8026  -12.6655   14.1792 H   0  0  0  0  0  0  0  0  0  0  0  0
    0.0982  -13.2294   12.5053 H   0  0  0  0  0  0  0  0  0  0  0  0
   -1.1478  -14.0411   15.1953 H   0  0  0  0  0  0  0  0  0  0  0  0
   -2.8854  -13.9795   13.8086 H   0  0  0  0  0  0  0  0  0  0  0  0
   -3.3048  -14.4654   15.9580 H   0  0  0  0  0  0  0  0  0  0  0  0
   -3.0842  -15.9804   14.9857 H   0  0  0  0  0  0  0  0  0  0  0  0
   -4.5242  -15.1273   12.4224 H   0  0  0  0  0  0  0  0  0  0  0  0
   -4.6392  -16.6394   13.3330 H   0  0  0  0  0  0  0  0  0  0  0  0
   -6.8300  -14.7309   12.4441 H   0  0  0  0  0  0  0  0  0  0  0  0
   -6.6617  -16.4518   12.1403 H   0  0  0  0  0  0  0  0  0  0  0  0
   -7.9319  -15.0358   14.3935 H   0  0  0  0  0  0  0  0  0  0  0  0
   -8.2226  -16.6588   13.8083 H   0  0  0  0  0  0  0  0  0  0  0  0
   -7.2659  -16.6665   16.1237 H   0  0  0  0  0  0  0  0  0  0  0  0
   -6.1467  -17.4381   14.9967 H   0  0  0  0  0  0  0  0  0  0  0  0
   -5.9780  -14.6452   16.1872 H   0  0  0  0  0  0  0  0  0  0  0  0
   -4.8640  -15.9877   16.3618 H   0  0  0  0  0  0  0  0  0  0  0  0
  1  2  1  0
  2  3  1  0
  3  4  1  0
  4  5  2  0
  5  6  1  0
  6  7  2  0
  7  8  1  0
  8  9  1  0
  9 10  1  0
 10 11  1  0
 11 12  1  0
 12 13  1  0
 13 14  1  0
 14 15  1  0
 15 16  1  0
 16 17  1  0
  7  3  1  0
 17 12  1  0
  1 18  1  0
  1 19  1  0
  1 20  1  0
  2 21  1  0
  2 22  1  0
  4 23  1  0
  5 24  1  0
  8 25  1  0
  8 26  1  0
  9 27  1  0
 10 28  1  0
 10 29  1  0
 11 30  1  0
 11 31  1  0
 13 32  1  0
 13 33  1  0
 14 34  1  0
 14 35  1  0
 15 36  1  0
 15 37  1  0
 16 38  1  0
 16 39  1  0
 17 40  1  0
 17 41  1  0
M  END
>  <Energy>  (1312) 
850.99070386059532

>  <compound_id>  (1312) 
17797

>  <target_id>  (1312) 
1

>  <reference_id>  (1312) 
9

>  <inspiration_ids>  (1312) 
[63, 9]

>  <energy_score>  (1312) 
789.7154260053314

>  <distance_score>  (1312) 
13.376845013359063

>  <path>  (1312) 
/opt/xchem-fragalysis-2/maxwin/BulkDock/SCRATCH/511014/C17797-P9/C17797-P9.minimised.mol

>  <scratch_subdir>  (1312) 
/opt/xchem-fragalysis-2/maxwin/BulkDock/SCRATCH/511014/C17797-P9

>  <fragmenstein_runtime>  (1312) 
13.504019737243652

>  <fragmenstein_outcome>  (1312) 
too moved

>  <fragmenstein_mode>  (1312) 
expansion

>  <fragmenstein_error>  (1312) 


$$$$
C17798-P63
     RDKit          3D

 42 44  0  0  0  0  0  0  0  0999 V2000
   -0.9241   -5.9371   12.9333 C   0  0  0  0  0  0  0  0  0  0  0  0
   -0.3822   -5.9347   14.1399 C   0  0  0  0  0  0  0  0  0  0  0  0
   -0.3986   -7.2798   14.6470 N   0  0  0  0  0  0  0  0  0  0  0  0
   -1.0558   -8.2275   13.8531 C   0  0  0  0  0  0  0  0  0  0  0  0
   -1.5692  -10.2352   14.2314 C   0  0  0  0  0  0  0  0  0  0  0  0
   -1.2138  -12.3511   13.7896 N   0  0  0  0  0  0  0  0  0  0  0  0
   -2.8605  -13.8424   13.7100 C   0  0  0  0  0  0  0  0  0  0  0  0
   -3.9422  -14.8433   12.3739 C   0  0  0  0  0  0  0  0  0  0  0  0
   -5.4523  -15.0514   12.2006 N   0  0  0  0  0  0  0  0  0  0  0  0
   -5.7826  -16.5159   12.0819 C   0  0  0  0  0  0  0  0  0  0  0  0
   -7.2745  -16.8216   11.9246 C   0  0  0  0  0  0  0  0  0  0  0  0
   -7.8712  -16.0452   10.7700 C   0  0  0  0  0  0  0  0  0  0  0  0
   -7.5077  -14.5711   10.9027 C   0  0  0  0  0  0  0  0  0  0  0  0
   -5.9920  -14.3450   11.0440 C   0  0  0  0  0  0  0  0  0  0  0  0
   -2.9756   -9.7229   15.7453 C   0  0  0  0  0  0  0  0  0  0  0  0
   -2.4875   -9.2372   17.4039 C   0  0  0  0  0  0  0  0  0  0  0  0
   -2.9049  -10.5919   17.4190 C   0  0  0  0  0  0  0  0  0  0  0  0
   -1.1083   -7.2490   12.7838 N   0  0  0  0  0  0  0  0  0  0  0  0
   -0.9984   -5.2125   12.1389 H   0  0  0  0  0  0  0  0  0  0  0  0
    0.3689   -5.2432   14.4100 H   0  0  0  0  0  0  0  0  0  0  0  0
   -0.1900   -7.6830   15.5452 H   0  0  0  0  0  0  0  0  0  0  0  0
   -1.4993  -10.1488   13.1497 H   0  0  0  0  0  0  0  0  0  0  0  0
   -0.8964  -12.2588   12.8040 H   0  0  0  0  0  0  0  0  0  0  0  0
   -2.5934  -14.6667   14.6898 H   0  0  0  0  0  0  0  0  0  0  0  0
   -3.7774  -13.2987   13.6128 H   0  0  0  0  0  0  0  0  0  0  0  0
   -3.4036  -14.9737   11.4284 H   0  0  0  0  0  0  0  0  0  0  0  0
   -3.8700  -15.8244   12.8469 H   0  0  0  0  0  0  0  0  0  0  0  0
   -5.4523  -17.0449   12.9854 H   0  0  0  0  0  0  0  0  0  0  0  0
   -5.2348  -16.9443   11.2316 H   0  0  0  0  0  0  0  0  0  0  0  0
   -7.4156  -17.8922   11.7460 H   0  0  0  0  0  0  0  0  0  0  0  0
   -7.8001  -16.5665   12.8530 H   0  0  0  0  0  0  0  0  0  0  0  0
   -8.9596  -16.1678   10.7503 H   0  0  0  0  0  0  0  0  0  0  0  0
   -7.4833  -16.4339    9.8206 H   0  0  0  0  0  0  0  0  0  0  0  0
   -8.0209  -14.1442   11.7742 H   0  0  0  0  0  0  0  0  0  0  0  0
   -7.8725  -14.0268   10.0239 H   0  0  0  0  0  0  0  0  0  0  0  0
   -5.8140  -13.2696   11.1590 H   0  0  0  0  0  0  0  0  0  0  0  0
   -5.4887  -14.6613   10.1214 H   0  0  0  0  0  0  0  0  0  0  0  0
   -3.9996   -9.7848   15.9489 H   0  0  0  0  0  0  0  0  0  0  0  0
   -3.1053   -8.4911   17.8479 H   0  0  0  0  0  0  0  0  0  0  0  0
   -1.4591   -9.0454   17.6829 H   0  0  0  0  0  0  0  0  0  0  0  0
   -3.8443  -10.9417   17.8069 H   0  0  0  0  0  0  0  0  0  0  0  0
   -2.1404  -11.2868   17.7705 H   0  0  0  0  0  0  0  0  0  0  0  0
  1  2  2  0
  2  3  1  0
  3  4  1  0
  4  5  1  0
  5  6  1  0
  6  7  1  0
  7  8  1  0
  8  9  1  0
  9 10  1  0
 10 11  1  0
 11 12  1  0
 12 13  1  0
 13 14  1  0
  5 15  1  0
 15 16  1  0
 16 17  1  0
  4 18  2  0
 18  1  1  0
 14  9  1  0
 17 15  1  0
  1 19  1  0
  2 20  1  0
  3 21  1  0
  5 22  1  0
  6 23  1  0
  7 24  1  0
  7 25  1  0
  8 26  1  0
  8 27  1  0
 10 28  1  0
 10 29  1  0
 11 30  1  0
 11 31  1  0
 12 32  1  0
 12 33  1  0
 13 34  1  0
 13 35  1  0
 14 36  1  0
 14 37  1  0
 15 38  1  0
 16 39  1  0
 16 40  1  0
 17 41  1  0
 17 42  1  0
M  END
>  <Energy>  (1313) 
933.4169942847127

>  <compound_id>  (1313) 
17798

>  <target_id>  (1313) 
1

>  <reference_id>  (1313) 
63

>  <inspiration_ids>  (1313) 
[63, 9]

>  <energy_score>  (1313) 
831.3247081794441

>  <distance_score>  (1313) 
14.327166007527273

>  <path>  (1313) 
/opt/xchem-fragalysis-2/maxwin/BulkDock/SCRATCH/511014/C17798-P63/C17798-P63.minimised.mol

>  <scratch_subdir>  (1313) 
/opt/xchem-fragalysis-2/maxwin/BulkDock/SCRATCH/511014/C17798-P63

>  <fragmenstein_runtime>  (1313) 
16.52801537513733

>  <fragmenstein_outcome>  (1313) 
too moved

>  <fragmenstein_mode>  (1313) 
expansion

>  <fragmenstein_error>  (1313) 


$$$$
C17798-P9
     RDKit          3D

 42 44  0  0  0  0  0  0  0  0999 V2000
    3.6605  -10.5793   15.2145 C   0  0  0  0  0  0  0  0  0  0  0  0
    4.1963  -11.6960   15.2829 C   0  0  0  0  0  0  0  0  0  0  0  0
    3.3412  -11.8108   16.7641 N   0  0  0  0  0  0  0  0  0  0  0  0
    1.8076  -12.4897   15.9186 C   0  0  0  0  0  0  0  0  0  0  0  0
    0.1541  -13.2186   17.0859 C   0  0  0  0  0  0  0  0  0  0  0  0
   -1.0189  -14.0027   16.6383 N   0  0  0  0  0  0  0  0  0  0  0  0
   -2.4056  -14.3876   17.2737 C   0  0  0  0  0  0  0  0  0  0  0  0
   -3.5684  -15.9479   16.8869 C   0  0  0  0  0  0  0  0  0  0  0  0
   -4.9412  -16.6069   17.0856 N   0  0  0  0  0  0  0  0  0  0  0  0
   -5.3168  -17.3949   15.8881 C   0  0  0  0  0  0  0  0  0  0  0  0
   -4.4376  -18.6194   15.6266 C   0  0  0  0  0  0  0  0  0  0  0  0
   -4.1172  -19.4049   16.8926 C   0  0  0  0  0  0  0  0  0  0  0  0
   -5.0523  -19.0320   18.0279 C   0  0  0  0  0  0  0  0  0  0  0  0
   -5.0568  -17.5117   18.2754 C   0  0  0  0  0  0  0  0  0  0  0  0
   -1.2453  -12.0721   17.9812 C   0  0  0  0  0  0  0  0  0  0  0  0
   -2.7110  -11.3349   17.8996 C   0  0  0  0  0  0  0  0  0  0  0  0
   -1.6002  -10.4842   18.2547 C   0  0  0  0  0  0  0  0  0  0  0  0
    2.8713  -11.1579   16.4920 N   0  0  0  0  0  0  0  0  0  0  0  0
    3.4712  -10.0678   14.3018 H   0  0  0  0  0  0  0  0  0  0  0  0
    4.7178  -12.2870   14.5681 H   0  0  0  0  0  0  0  0  0  0  0  0
    3.6083  -12.5455   17.3724 H   0  0  0  0  0  0  0  0  0  0  0  0
    0.7182  -13.9302   17.6657 H   0  0  0  0  0  0  0  0  0  0  0  0
   -1.0252  -13.8731   15.6353 H   0  0  0  0  0  0  0  0  0  0  0  0
   -3.0204  -13.5563   17.1766 H   0  0  0  0  0  0  0  0  0  0  0  0
   -1.9098  -14.5617   18.2373 H   0  0  0  0  0  0  0  0  0  0  0  0
   -3.4754  -16.0231   15.8078 H   0  0  0  0  0  0  0  0  0  0  0  0
   -3.0580  -16.7331   17.4463 H   0  0  0  0  0  0  0  0  0  0  0  0
   -5.2938  -16.8131   14.9674 H   0  0  0  0  0  0  0  0  0  0  0  0
   -6.3745  -17.6213   16.0050 H   0  0  0  0  0  0  0  0  0  0  0  0
   -3.4953  -18.3156   15.1579 H   0  0  0  0  0  0  0  0  0  0  0  0
   -4.9138  -19.2301   14.8606 H   0  0  0  0  0  0  0  0  0  0  0  0
   -3.0890  -19.1725   17.1997 H   0  0  0  0  0  0  0  0  0  0  0  0
   -4.1244  -20.4814   16.7120 H   0  0  0  0  0  0  0  0  0  0  0  0
   -6.0683  -19.3780   17.8182 H   0  0  0  0  0  0  0  0  0  0  0  0
   -4.7421  -19.5456   18.9457 H   0  0  0  0  0  0  0  0  0  0  0  0
   -6.0082  -17.2696   18.7669 H   0  0  0  0  0  0  0  0  0  0  0  0
   -4.2879  -17.2811   19.0233 H   0  0  0  0  0  0  0  0  0  0  0  0
   -1.8219  -12.7145   18.6550 H   0  0  0  0  0  0  0  0  0  0  0  0
   -3.3085  -10.7918   17.1853 H   0  0  0  0  0  0  0  0  0  0  0  0
   -3.4333  -11.5577   18.6917 H   0  0  0  0  0  0  0  0  0  0  0  0
   -1.5967   -9.5902   17.6301 H   0  0  0  0  0  0  0  0  0  0  0  0
   -1.6099  -10.0346   19.2297 H   0  0  0  0  0  0  0  0  0  0  0  0
  1  2  2  0
  2  3  1  0
  3  4  1  0
  4  5  1  0
  5  6  1  0
  6  7  1  0
  7  8  1  0
  8  9  1  0
  9 10  1  0
 10 11  1  0
 11 12  1  0
 12 13  1  0
 13 14  1  0
  5 15  1  0
 15 16  1  0
 16 17  1  0
  4 18  2  0
 18  1  1  0
 14  9  1  0
 17 15  1  0
  1 19  1  0
  2 20  1  0
  3 21  1  0
  5 22  1  0
  6 23  1  0
  7 24  1  0
  7 25  1  0
  8 26  1  0
  8 27  1  0
 10 28  1  0
 10 29  1  0
 11 30  1  0
 11 31  1  0
 12 32  1  0
 12 33  1  0
 13 34  1  0
 13 35  1  0
 14 36  1  0
 14 37  1  0
 15 38  1  0
 16 39  1  0
 16 40  1  0
 17 41  1  0
 17 42  1  0
M  END
>  <Energy>  (1314) 
878.91437899867969

>  <compound_id>  (1314) 
17798

>  <target_id>  (1314) 
1

>  <reference_id>  (1314) 
9

>  <inspiration_ids>  (1314) 
[63, 9]

>  <energy_score>  (1314) 
776.822092893422

>  <distance_score>  (1314) 
13.276542456103769

>  <path>  (1314) 
/opt/xchem-fragalysis-2/maxwin/BulkDock/SCRATCH/511014/C17798-P9/C17798-P9.minimised.mol

>  <scratch_subdir>  (1314) 
/opt/xchem-fragalysis-2/maxwin/BulkDock/SCRATCH/511014/C17798-P9

>  <fragmenstein_runtime>  (1314) 
18.4996919631958

>  <fragmenstein_outcome>  (1314) 
too moved

>  <fragmenstein_mode>  (1314) 
expansion

>  <fragmenstein_error>  (1314) 


$$$$
C17799-P63
     RDKit          3D

 38 39  0  0  0  0  0  0  0  0999 V2000
   -1.4706  -20.1334   20.5280 F   0  0  0  0  0  0  0  0  0  0  0  0
   -0.9644  -19.0069   19.9701 C   0  0  0  0  0  0  0  0  0  0  0  0
   -1.4745  -18.9010   18.7163 F   0  0  0  0  0  0  0  0  0  0  0  0
   -1.2701  -17.8273   20.7580 N   0  0  0  0  0  0  0  0  0  0  0  0
   -0.4141  -17.1693   21.6064 C   0  0  0  0  0  0  0  0  0  0  0  0
   -1.1800  -16.2046   22.2099 C   0  0  0  0  0  0  0  0  0  0  0  0
   -2.4547  -16.2198   21.7031 N   0  0  0  0  0  0  0  0  0  0  0  0
   -2.5294  -17.2811   20.9090 C   0  0  0  0  0  0  0  0  0  0  0  0
   -3.8080  -17.8819   20.2928 C   0  0  0  0  0  0  0  0  0  0  0  0
   -4.2675  -19.1282   20.9686 N   0  0  0  0  0  0  0  0  0  0  0  0
   -5.5634  -19.6479   20.4659 C   0  0  0  0  0  0  0  0  0  0  0  0
   -5.4280  -20.4984   19.1881 C   0  0  0  0  0  0  0  0  0  0  0  0
   -6.6970  -21.0387   18.6780 N   0  0  0  0  0  0  0  0  0  0  0  0
   -7.6270  -20.0222   18.3110 C   0  0  0  0  0  0  0  0  0  0  0  0
   -8.8955  -20.6855   17.7578 C   0  0  0  0  0  0  0  0  0  0  0  0
   -9.3151  -21.7038   16.2050 C   0  0  0  0  0  0  0  0  0  0  0  0
   -7.6613  -22.2347   15.7090 C   0  0  0  0  0  0  0  0  0  0  0  0
   -6.4570  -21.9437   17.5098 C   0  0  0  0  0  0  0  0  0  0  0  0
    0.1170  -19.1224   19.8951 H   0  0  0  0  0  0  0  0  0  0  0  0
    0.6127  -17.4613   21.7497 H   0  0  0  0  0  0  0  0  0  0  0  0
   -0.8799  -15.4850   22.9607 H   0  0  0  0  0  0  0  0  0  0  0  0
   -3.6389  -18.0670   19.2276 H   0  0  0  0  0  0  0  0  0  0  0  0
   -4.5924  -17.1193   20.3728 H   0  0  0  0  0  0  0  0  0  0  0  0
   -4.3881  -18.8877   21.9545 H   0  0  0  0  0  0  0  0  0  0  0  0
   -6.2511  -18.8066   20.3331 H   0  0  0  0  0  0  0  0  0  0  0  0
   -5.9901  -20.2823   21.2526 H   0  0  0  0  0  0  0  0  0  0  0  0
   -4.7552  -21.3345   19.4221 H   0  0  0  0  0  0  0  0  0  0  0  0
   -4.9352  -19.8970   18.4121 H   0  0  0  0  0  0  0  0  0  0  0  0
   -7.9495  -19.5025   19.2246 H   0  0  0  0  0  0  0  0  0  0  0  0
   -7.1842  -19.2258   17.7110 H   0  0  0  0  0  0  0  0  0  0  0  0
   -9.5161  -19.7942   17.7941 H   0  0  0  0  0  0  0  0  0  0  0  0
   -9.1143  -21.2894   18.6276 H   0  0  0  0  0  0  0  0  0  0  0  0
   -9.7393  -21.1258   15.3785 H   0  0  0  0  0  0  0  0  0  0  0  0
   -9.7143  -22.6850   16.0971 H   0  0  0  0  0  0  0  0  0  0  0  0
   -7.6418  -23.2743   15.5287 H   0  0  0  0  0  0  0  0  0  0  0  0
   -7.0770  -21.1781   16.5273 H   0  0  0  0  0  0  0  0  0  0  0  0
   -6.2475  -22.8957   18.0437 H   0  0  0  0  0  0  0  0  0  0  0  0
   -5.3892  -21.6968   17.2491 H   0  0  0  0  0  0  0  0  0  0  0  0
  1  2  1  0
  2  3  1  0
  2  4  1  0
  4  5  1  0
  5  6  2  0
  6  7  1  0
  7  8  2  0
  8  9  1  0
  9 10  1  0
 10 11  1  0
 11 12  1  0
 12 13  1  0
 13 14  1  0
 14 15  1  0
 15 16  1  0
 16 17  1  0
 17 18  1  0
  8  4  1  0
 18 13  1  0
  2 19  1  0
  5 20  1  0
  6 21  1  0
  9 22  1  0
  9 23  1  0
 10 24  1  0
 11 25  1  0
 11 26  1  0
 12 27  1  0
 12 28  1  0
 14 29  1  0
 14 30  1  0
 15 31  1  0
 15 32  1  0
 16 33  1  0
 16 34  1  0
 17 35  1  0
 17 36  1  0
 18 37  1  0
 18 38  1  0
M  END
>  <Energy>  (1315) 
371.65669421032817

>  <compound_id>  (1315) 
17799

>  <target_id>  (1315) 
1

>  <reference_id>  (1315) 
63

>  <inspiration_ids>  (1315) 
[63, 9]

>  <energy_score>  (1315) 
297.2023474673894

>  <distance_score>  (1315) 
14.297808417897853

>  <path>  (1315) 
/opt/xchem-fragalysis-2/maxwin/BulkDock/SCRATCH/511014/C17799-P63/C17799-P63.minimised.mol

>  <scratch_subdir>  (1315) 
/opt/xchem-fragalysis-2/maxwin/BulkDock/SCRATCH/511014/C17799-P63

>  <fragmenstein_runtime>  (1315) 
14.57265591621399

>  <fragmenstein_outcome>  (1315) 
too moved

>  <fragmenstein_mode>  (1315) 
expansion

>  <fragmenstein_error>  (1315) 


$$$$
C17799-P9
     RDKit          3D

 38 39  0  0  0  0  0  0  0  0999 V2000
   -5.1900  -12.1585   11.2703 F   0  0  0  0  0  0  0  0  0  0  0  0
   -5.5718  -10.8616   11.4184 C   0  0  0  0  0  0  0  0  0  0  0  0
   -6.6403  -10.6866   10.5940 F   0  0  0  0  0  0  0  0  0  0  0  0
   -5.9344  -10.5478   12.7855 N   0  0  0  0  0  0  0  0  0  0  0  0
   -5.6717   -9.3461   13.4090 C   0  0  0  0  0  0  0  0  0  0  0  0
   -6.2342   -9.4676   14.6509 C   0  0  0  0  0  0  0  0  0  0  0  0
   -6.8445  -10.7016   14.7877 N   0  0  0  0  0  0  0  0  0  0  0  0
   -6.6549  -11.3685   13.6545 C   0  0  0  0  0  0  0  0  0  0  0  0
   -7.1194  -12.8116   13.2676 C   0  0  0  0  0  0  0  0  0  0  0  0
   -7.8648  -13.6536   14.2659 N   0  0  0  0  0  0  0  0  0  0  0  0
   -8.2382  -14.9902   13.7217 C   0  0  0  0  0  0  0  0  0  0  0  0
   -9.4494  -15.7177   14.3839 C   0  0  0  0  0  0  0  0  0  0  0  0
   -9.4696  -15.8161   15.8496 N   0  0  0  0  0  0  0  0  0  0  0  0
  -10.6369  -16.5885   16.2854 C   0  0  0  0  0  0  0  0  0  0  0  0
  -10.7260  -16.5926   17.8074 C   0  0  0  0  0  0  0  0  0  0  0  0
   -9.4837  -17.2249   18.4217 C   0  0  0  0  0  0  0  0  0  0  0  0
   -8.2356  -16.5207   17.9140 C   0  0  0  0  0  0  0  0  0  0  0  0
   -8.2124  -16.3336   16.3963 C   0  0  0  0  0  0  0  0  0  0  0  0
   -4.7582  -10.2101   11.0880 H   0  0  0  0  0  0  0  0  0  0  0  0
   -5.1104   -8.5548   12.9333 H   0  0  0  0  0  0  0  0  0  0  0  0
   -6.2426   -8.7512   15.4613 H   0  0  0  0  0  0  0  0  0  0  0  0
   -7.7446  -12.7043   12.3724 H   0  0  0  0  0  0  0  0  0  0  0  0
   -6.2165  -13.3695   12.9937 H   0  0  0  0  0  0  0  0  0  0  0  0
   -8.6931  -13.1456   14.5745 H   0  0  0  0  0  0  0  0  0  0  0  0
   -7.3535  -15.6355   13.7762 H   0  0  0  0  0  0  0  0  0  0  0  0
   -8.4879  -14.8867   12.6580 H   0  0  0  0  0  0  0  0  0  0  0  0
  -10.3484  -15.1661   14.0769 H   0  0  0  0  0  0  0  0  0  0  0  0
   -9.5258  -16.7061   13.9212 H   0  0  0  0  0  0  0  0  0  0  0  0
  -11.5537  -16.1322   15.8928 H   0  0  0  0  0  0  0  0  0  0  0  0
  -10.5873  -17.6085   15.8968 H   0  0  0  0  0  0  0  0  0  0  0  0
  -11.6320  -17.1054   18.1442 H   0  0  0  0  0  0  0  0  0  0  0  0
  -10.8206  -15.5595   18.1687 H   0  0  0  0  0  0  0  0  0  0  0  0
   -9.4232  -18.2890   18.1868 H   0  0  0  0  0  0  0  0  0  0  0  0
   -9.5317  -17.1502   19.5141 H   0  0  0  0  0  0  0  0  0  0  0  0
   -7.3420  -17.0690   18.2340 H   0  0  0  0  0  0  0  0  0  0  0  0
   -8.1790  -15.5313   18.3874 H   0  0  0  0  0  0  0  0  0  0  0  0
   -7.9363  -17.2626   15.9077 H   0  0  0  0  0  0  0  0  0  0  0  0
   -7.3966  -15.6327   16.1853 H   0  0  0  0  0  0  0  0  0  0  0  0
  1  2  1  0
  2  3  1  0
  2  4  1  0
  4  5  1  0
  5  6  2  0
  6  7  1  0
  7  8  2  0
  8  9  1  0
  9 10  1  0
 10 11  1  0
 11 12  1  0
 12 13  1  0
 13 14  1  0
 14 15  1  0
 15 16  1  0
 16 17  1  0
 17 18  1  0
  8  4  1  0
 18 13  1  0
  2 19  1  0
  5 20  1  0
  6 21  1  0
  9 22  1  0
  9 23  1  0
 10 24  1  0
 11 25  1  0
 11 26  1  0
 12 27  1  0
 12 28  1  0
 14 29  1  0
 14 30  1  0
 15 31  1  0
 15 32  1  0
 16 33  1  0
 16 34  1  0
 17 35  1  0
 17 36  1  0
 18 37  1  0
 18 38  1  0
M  END
>  <Energy>  (1316) 
54.939498980097241

>  <compound_id>  (1316) 
17799

>  <target_id>  (1316) 
1

>  <reference_id>  (1316) 
9

>  <inspiration_ids>  (1316) 
[63, 9]

>  <energy_score>  (1316) 
-19.514847762831607

>  <distance_score>  (1316) 
15.127612676124935

>  <path>  (1316) 
/opt/xchem-fragalysis-2/maxwin/BulkDock/SCRATCH/511014/C17799-P9/C17799-P9.minimised.mol

>  <scratch_subdir>  (1316) 
/opt/xchem-fragalysis-2/maxwin/BulkDock/SCRATCH/511014/C17799-P9

>  <fragmenstein_runtime>  (1316) 
11.745436191558838

>  <fragmenstein_outcome>  (1316) 
too moved

>  <fragmenstein_mode>  (1316) 
expansion

>  <fragmenstein_error>  (1316) 


$$$$
C17801-P63
     RDKit          3D

 44 45  0  0  0  0  0  0  0  0999 V2000
   -8.2372  -11.1674   21.5245 C   0  0  0  0  0  0  0  0  0  0  0  0
   -6.7730  -11.0373   21.9184 C   0  0  0  0  0  0  0  0  0  0  0  0
   -5.8418  -11.8845   21.0504 C   0  0  0  0  0  0  0  0  0  0  0  0
   -5.7404  -11.4117   19.6821 N   0  0  0  0  0  0  0  0  0  0  0  0
   -4.9576  -10.3444   19.2941 C   0  0  0  0  0  0  0  0  0  0  0  0
   -5.2276  -10.1759   17.9639 C   0  0  0  0  0  0  0  0  0  0  0  0
   -6.0971  -11.1566   17.5246 N   0  0  0  0  0  0  0  0  0  0  0  0
   -6.3707  -11.9502   18.5594 C   0  0  0  0  0  0  0  0  0  0  0  0
   -6.9935  -13.4010   18.4779 C   0  0  0  0  0  0  0  0  0  0  0  0
   -8.4469  -13.6629   18.6401 N   0  0  0  0  0  0  0  0  0  0  0  0
   -8.9033  -15.0632   18.2949 C   0  0  0  0  0  0  0  0  0  0  0  0
   -8.0146  -16.2492   18.7615 C   0  0  0  0  0  0  0  0  0  0  0  0
   -8.6595  -17.5841   18.8491 N   0  0  0  0  0  0  0  0  0  0  0  0
   -7.5810  -18.5903   18.8947 C   0  0  0  0  0  0  0  0  0  0  0  0
   -8.0875  -20.0042   19.1122 C   0  0  0  0  0  0  0  0  0  0  0  0
   -8.9230  -20.0967   20.3788 C   0  0  0  0  0  0  0  0  0  0  0  0
  -10.0233  -19.0463   20.3760 C   0  0  0  0  0  0  0  0  0  0  0  0
   -9.4726  -17.6554   20.0788 C   0  0  0  0  0  0  0  0  0  0  0  0
   -8.8646  -10.5979   22.2175 H   0  0  0  0  0  0  0  0  0  0  0  0
   -8.4170  -10.7796   20.5174 H   0  0  0  0  0  0  0  0  0  0  0  0
   -8.5609  -12.2125   21.5568 H   0  0  0  0  0  0  0  0  0  0  0  0
   -6.6645  -11.3582   22.9612 H   0  0  0  0  0  0  0  0  0  0  0  0
   -6.4807   -9.9815   21.8771 H   0  0  0  0  0  0  0  0  0  0  0  0
   -4.8269  -11.8598   21.4656 H   0  0  0  0  0  0  0  0  0  0  0  0
   -6.1603  -12.9292   21.0543 H   0  0  0  0  0  0  0  0  0  0  0  0
   -4.3349   -9.7971   19.9874 H   0  0  0  0  0  0  0  0  0  0  0  0
   -4.8452   -9.4197   17.2909 H   0  0  0  0  0  0  0  0  0  0  0  0
   -6.5279  -13.9794   19.2735 H   0  0  0  0  0  0  0  0  0  0  0  0
   -6.6769  -13.8106   17.5142 H   0  0  0  0  0  0  0  0  0  0  0  0
   -8.9400  -13.0144   18.0232 H   0  0  0  0  0  0  0  0  0  0  0  0
   -9.0180  -15.1240   17.2055 H   0  0  0  0  0  0  0  0  0  0  0  0
   -9.9077  -15.1560   18.7199 H   0  0  0  0  0  0  0  0  0  0  0  0
   -7.1832  -16.2970   18.0443 H   0  0  0  0  0  0  0  0  0  0  0  0
   -7.5599  -16.0003   19.7302 H   0  0  0  0  0  0  0  0  0  0  0  0
   -6.8687  -18.3483   19.6967 H   0  0  0  0  0  0  0  0  0  0  0  0
   -7.0135  -18.5645   17.9580 H   0  0  0  0  0  0  0  0  0  0  0  0
   -8.6685  -20.3273   18.2497 H   0  0  0  0  0  0  0  0  0  0  0  0
   -7.2166  -20.6606   19.1854 H   0  0  0  0  0  0  0  0  0  0  0  0
   -8.2740  -19.9332   21.2487 H   0  0  0  0  0  0  0  0  0  0  0  0
   -9.3553  -21.0934   20.5012 H   0  0  0  0  0  0  0  0  0  0  0  0
  -10.5181  -19.0398   21.3546 H   0  0  0  0  0  0  0  0  0  0  0  0
  -10.7990  -19.2814   19.6476 H   0  0  0  0  0  0  0  0  0  0  0  0
   -8.8833  -17.3330   20.9484 H   0  0  0  0  0  0  0  0  0  0  0  0
  -10.3220  -16.9677   19.9999 H   0  0  0  0  0  0  0  0  0  0  0  0
  1  2  1  0
  2  3  1  0
  3  4  1  0
  4  5  1  0
  5  6  2  0
  6  7  1  0
  7  8  2  0
  8  9  1  0
  9 10  1  0
 10 11  1  0
 11 12  1  0
 12 13  1  0
 13 14  1  0
 14 15  1  0
 15 16  1  0
 16 17  1  0
 17 18  1  0
  8  4  1  0
 18 13  1  0
  1 19  1  0
  1 20  1  0
  1 21  1  0
  2 22  1  0
  2 23  1  0
  3 24  1  0
  3 25  1  0
  5 26  1  0
  6 27  1  0
  9 28  1  0
  9 29  1  0
 10 30  1  0
 11 31  1  0
 11 32  1  0
 12 33  1  0
 12 34  1  0
 14 35  1  0
 14 36  1  0
 15 37  1  0
 15 38  1  0
 16 39  1  0
 16 40  1  0
 17 41  1  0
 17 42  1  0
 18 43  1  0
 18 44  1  0
M  END
>  <Energy>  (1317) 
41.575180036785071

>  <compound_id>  (1317) 
17801

>  <target_id>  (1317) 
1

>  <reference_id>  (1317) 
63

>  <inspiration_ids>  (1317) 
[63, 9]

>  <energy_score>  (1317) 
-22.842522263545163

>  <distance_score>  (1317) 
14.920090464709684

>  <path>  (1317) 
/opt/xchem-fragalysis-2/maxwin/BulkDock/SCRATCH/511014/C17801-P63/C17801-P63.minimised.mol

>  <scratch_subdir>  (1317) 
/opt/xchem-fragalysis-2/maxwin/BulkDock/SCRATCH/511014/C17801-P63

>  <fragmenstein_runtime>  (1317) 
14.516008853912354

>  <fragmenstein_outcome>  (1317) 
too moved

>  <fragmenstein_mode>  (1317) 
expansion

>  <fragmenstein_error>  (1317) 


$$$$
C17801-P9
     RDKit          3D

 44 45  0  0  0  0  0  0  0  0999 V2000
    0.5873  -12.5210   26.5727 C   0  0  0  0  0  0  0  0  0  0  0  0
   -0.2615  -12.0587   25.3947 C   0  0  0  0  0  0  0  0  0  0  0  0
    0.4147  -12.3449   24.0334 C   0  0  0  0  0  0  0  0  0  0  0  0
    0.7721  -11.1792   23.2148 N   0  0  0  0  0  0  0  0  0  0  0  0
    1.5149  -10.1901   23.8507 C   0  0  0  0  0  0  0  0  0  0  0  0
    1.7011   -9.1985   22.9541 C   0  0  0  0  0  0  0  0  0  0  0  0
    1.3145   -9.6412   21.7250 N   0  0  0  0  0  0  0  0  0  0  0  0
    0.5836  -10.7888   21.8198 C   0  0  0  0  0  0  0  0  0  0  0  0
   -0.6227  -11.4558   20.3552 C   0  0  0  0  0  0  0  0  0  0  0  0
   -1.4924  -13.0282   21.2617 N   0  0  0  0  0  0  0  0  0  0  0  0
   -2.3921  -14.2732   20.9460 C   0  0  0  0  0  0  0  0  0  0  0  0
   -2.3546  -15.9202   21.3088 C   0  0  0  0  0  0  0  0  0  0  0  0
   -3.3008  -16.8349   20.5502 N   0  0  0  0  0  0  0  0  0  0  0  0
   -4.5982  -17.0994   21.1822 C   0  0  0  0  0  0  0  0  0  0  0  0
   -5.6140  -17.7287   20.1940 C   0  0  0  0  0  0  0  0  0  0  0  0
   -4.9730  -18.6105   19.1211 C   0  0  0  0  0  0  0  0  0  0  0  0
   -3.6703  -19.1969   19.6397 C   0  0  0  0  0  0  0  0  0  0  0  0
   -2.6812  -18.1010   20.1041 C   0  0  0  0  0  0  0  0  0  0  0  0
    0.0653  -12.3239   27.5144 H   0  0  0  0  0  0  0  0  0  0  0  0
    1.5471  -11.9964   26.6011 H   0  0  0  0  0  0  0  0  0  0  0  0
    0.7839  -13.5965   26.5143 H   0  0  0  0  0  0  0  0  0  0  0  0
   -0.5014  -10.9977   25.5245 H   0  0  0  0  0  0  0  0  0  0  0  0
   -1.2111  -12.6063   25.4381 H   0  0  0  0  0  0  0  0  0  0  0  0
   -0.2123  -13.0250   23.4614 H   0  0  0  0  0  0  0  0  0  0  0  0
    1.3688  -12.8494   24.2354 H   0  0  0  0  0  0  0  0  0  0  0  0
    1.7861  -10.2574   24.8949 H   0  0  0  0  0  0  0  0  0  0  0  0
    2.1661   -8.2360   23.1133 H   0  0  0  0  0  0  0  0  0  0  0  0
   -1.1134  -10.5175   19.8417 H   0  0  0  0  0  0  0  0  0  0  0  0
   -0.5483  -11.8827   19.3834 H   0  0  0  0  0  0  0  0  0  0  0  0
   -2.3785  -12.5318   21.0890 H   0  0  0  0  0  0  0  0  0  0  0  0
   -3.3226  -13.9762   21.4527 H   0  0  0  0  0  0  0  0  0  0  0  0
   -2.3595  -14.1884   19.8781 H   0  0  0  0  0  0  0  0  0  0  0  0
   -2.5187  -16.0249   22.3886 H   0  0  0  0  0  0  0  0  0  0  0  0
   -1.3324  -16.2703   21.1295 H   0  0  0  0  0  0  0  0  0  0  0  0
   -5.0335  -16.1723   21.5731 H   0  0  0  0  0  0  0  0  0  0  0  0
   -4.4631  -17.7643   22.0454 H   0  0  0  0  0  0  0  0  0  0  0  0
   -6.1935  -16.9396   19.7009 H   0  0  0  0  0  0  0  0  0  0  0  0
   -6.3316  -18.3221   20.7739 H   0  0  0  0  0  0  0  0  0  0  0  0
   -4.7670  -18.0071   18.2282 H   0  0  0  0  0  0  0  0  0  0  0  0
   -5.6658  -19.4029   18.8171 H   0  0  0  0  0  0  0  0  0  0  0  0
   -3.8919  -19.8599   20.4859 H   0  0  0  0  0  0  0  0  0  0  0  0
   -3.1981  -19.8140   18.8670 H   0  0  0  0  0  0  0  0  0  0  0  0
   -2.0056  -17.8677   19.2730 H   0  0  0  0  0  0  0  0  0  0  0  0
   -2.0643  -18.5270   20.9057 H   0  0  0  0  0  0  0  0  0  0  0  0
  1  2  1  0
  2  3  1  0
  3  4  1  0
  4  5  1  0
  5  6  2  0
  6  7  1  0
  7  8  2  0
  8  9  1  0
  9 10  1  0
 10 11  1  0
 11 12  1  0
 12 13  1  0
 13 14  1  0
 14 15  1  0
 15 16  1  0
 16 17  1  0
 17 18  1  0
  8  4  1  0
 18 13  1  0
  1 19  1  0
  1 20  1  0
  1 21  1  0
  2 22  1  0
  2 23  1  0
  3 24  1  0
  3 25  1  0
  5 26  1  0
  6 27  1  0
  9 28  1  0
  9 29  1  0
 10 30  1  0
 11 31  1  0
 11 32  1  0
 12 33  1  0
 12 34  1  0
 14 35  1  0
 14 36  1  0
 15 37  1  0
 15 38  1  0
 16 39  1  0
 16 40  1  0
 17 41  1  0
 17 42  1  0
 18 43  1  0
 18 44  1  0
M  END
>  <Energy>  (1318) 
298.43678921930365

>  <compound_id>  (1318) 
17801

>  <target_id>  (1318) 
1

>  <reference_id>  (1318) 
9

>  <inspiration_ids>  (1318) 
[63, 9]

>  <energy_score>  (1318) 
234.0190869189696

>  <distance_score>  (1318) 
15.02889796041452

>  <path>  (1318) 
/opt/xchem-fragalysis-2/maxwin/BulkDock/SCRATCH/511014/C17801-P9/C17801-P9.minimised.mol

>  <scratch_subdir>  (1318) 
/opt/xchem-fragalysis-2/maxwin/BulkDock/SCRATCH/511014/C17801-P9

>  <fragmenstein_runtime>  (1318) 
14.840219020843506

>  <fragmenstein_outcome>  (1318) 
too moved

>  <fragmenstein_mode>  (1318) 
expansion

>  <fragmenstein_error>  (1318) 


$$$$
C17802-P63
     RDKit          3D

 45 47  0  0  0  0  0  0  0  0999 V2000
    6.0210   -8.2026   18.8194 C   0  0  0  0  0  0  0  0  0  0  0  0
    5.1372   -9.1986   18.4402 C   0  0  0  0  0  0  0  0  0  0  0  0
    3.3847   -9.3286   17.9074 C   0  0  0  0  0  0  0  0  0  0  0  0
    2.4646   -8.3920   17.9477 C   0  0  0  0  0  0  0  0  0  0  0  0
    0.8671   -8.5740   18.7946 N   0  0  0  0  0  0  0  0  0  0  0  0
    0.5783   -7.8470   20.0675 C   0  0  0  0  0  0  0  0  0  0  0  0
   -0.7439   -7.7024   20.3286 C   0  0  0  0  0  0  0  0  0  0  0  0
   -1.5320   -8.2490   19.3916 N   0  0  0  0  0  0  0  0  0  0  0  0
   -0.8214   -8.9528   18.4873 C   0  0  0  0  0  0  0  0  0  0  0  0
   -1.8900  -10.4946   18.1528 C   0  0  0  0  0  0  0  0  0  0  0  0
   -1.7400  -12.2116   18.2131 N   0  0  0  0  0  0  0  0  0  0  0  0
   -2.1467  -13.5887   17.1276 C   0  0  0  0  0  0  0  0  0  0  0  0
   -3.3730  -14.8651   16.3453 C   0  0  0  0  0  0  0  0  0  0  0  0
   -4.3410  -16.1007   16.6353 N   0  0  0  0  0  0  0  0  0  0  0  0
   -5.7653  -15.8223   17.0073 C   0  0  0  0  0  0  0  0  0  0  0  0
   -6.9142  -16.5140   16.2558 C   0  0  0  0  0  0  0  0  0  0  0  0
   -6.7595  -16.3413   14.7650 C   0  0  0  0  0  0  0  0  0  0  0  0
   -5.3648  -16.7465   14.3258 C   0  0  0  0  0  0  0  0  0  0  0  0
   -4.4189  -17.0744   15.4899 C   0  0  0  0  0  0  0  0  0  0  0  0
    3.8098   -7.4195   18.1718 C   0  0  0  0  0  0  0  0  0  0  0  0
    5.3836   -7.1190   18.4799 C   0  0  0  0  0  0  0  0  0  0  0  0
    7.0090   -8.3738   19.1814 H   0  0  0  0  0  0  0  0  0  0  0  0
    5.7094  -10.1458   18.5390 H   0  0  0  0  0  0  0  0  0  0  0  0
    3.1099  -10.2932   17.4661 H   0  0  0  0  0  0  0  0  0  0  0  0
    1.3229   -7.2904   20.5953 H   0  0  0  0  0  0  0  0  0  0  0  0
   -1.1755   -7.1484   21.1516 H   0  0  0  0  0  0  0  0  0  0  0  0
   -2.7231  -10.1785   17.5152 H   0  0  0  0  0  0  0  0  0  0  0  0
   -2.3820  -10.4473   19.1421 H   0  0  0  0  0  0  0  0  0  0  0  0
   -0.7341  -12.2889   18.1262 H   0  0  0  0  0  0  0  0  0  0  0  0
   -1.7023  -14.2460   17.8372 H   0  0  0  0  0  0  0  0  0  0  0  0
   -3.0018  -13.1163   17.4001 H   0  0  0  0  0  0  0  0  0  0  0  0
   -4.0915  -14.2675   15.8688 H   0  0  0  0  0  0  0  0  0  0  0  0
   -2.7583  -15.1776   15.5042 H   0  0  0  0  0  0  0  0  0  0  0  0
   -5.9746  -14.7504   16.9798 H   0  0  0  0  0  0  0  0  0  0  0  0
   -5.8971  -16.1751   18.0385 H   0  0  0  0  0  0  0  0  0  0  0  0
   -6.9312  -17.5667   16.5372 H   0  0  0  0  0  0  0  0  0  0  0  0
   -7.8724  -16.0929   16.5822 H   0  0  0  0  0  0  0  0  0  0  0  0
   -6.9251  -15.2892   14.5043 H   0  0  0  0  0  0  0  0  0  0  0  0
   -7.5254  -16.8990   14.2218 H   0  0  0  0  0  0  0  0  0  0  0  0
   -4.9323  -15.9485   13.7119 H   0  0  0  0  0  0  0  0  0  0  0  0
   -5.4310  -17.6252   13.6726 H   0  0  0  0  0  0  0  0  0  0  0  0
   -4.7151  -18.0417   15.9198 H   0  0  0  0  0  0  0  0  0  0  0  0
   -3.4589  -17.2821   15.0263 H   0  0  0  0  0  0  0  0  0  0  0  0
    4.2347   -6.8617   17.2099 H   0  0  0  0  0  0  0  0  0  0  0  0
    5.7700   -6.1126   18.4433 H   0  0  0  0  0  0  0  0  0  0  0  0
  1  2  2  0
  2  3  1  0
  3  4  2  0
  4  5  1  0
  5  6  1  0
  6  7  2  0
  7  8  1  0
  8  9  2  0
  9 10  1  0
 10 11  1  0
 11 12  1  0
 12 13  1  0
 13 14  1  0
 14 15  1  0
 15 16  1  0
 16 17  1  0
 17 18  1  0
 18 19  1  0
  4 20  1  0
 20 21  2  0
 21  1  1  0
  9  5  1  0
 19 14  1  0
  1 22  1  0
  2 23  1  0
  3 24  1  0
  6 25  1  0
  7 26  1  0
 10 27  1  0
 10 28  1  0
 11 29  1  0
 12 30  1  0
 12 31  1  0
 13 32  1  0
 13 33  1  0
 15 34  1  0
 15 35  1  0
 16 36  1  0
 16 37  1  0
 17 38  1  0
 17 39  1  0
 18 40  1  0
 18 41  1  0
 19 42  1  0
 19 43  1  0
 20 44  1  0
 21 45  1  0
M  END
>  <Energy>  (1319) 
721.50068069393126

>  <compound_id>  (1319) 
17802

>  <target_id>  (1319) 
1

>  <reference_id>  (1319) 
63

>  <inspiration_ids>  (1319) 
[63, 9]

>  <energy_score>  (1319) 
603.8762154313008

>  <distance_score>  (1319) 
14.200172611777521

>  <path>  (1319) 
/opt/xchem-fragalysis-2/maxwin/BulkDock/SCRATCH/511014/C17802-P63/C17802-P63.minimised.mol

>  <scratch_subdir>  (1319) 
/opt/xchem-fragalysis-2/maxwin/BulkDock/SCRATCH/511014/C17802-P63

>  <fragmenstein_runtime>  (1319) 
18.10134220123291

>  <fragmenstein_outcome>  (1319) 
too moved

>  <fragmenstein_mode>  (1319) 
expansion

>  <fragmenstein_error>  (1319) 


$$$$
C17802-P9
     RDKit          3D

 45 47  0  0  0  0  0  0  0  0999 V2000
   -6.8416   -5.9274   20.4372 C   0  0  0  0  0  0  0  0  0  0  0  0
   -5.6525   -5.6823   21.1195 C   0  0  0  0  0  0  0  0  0  0  0  0
   -4.4816   -6.3522   20.7543 C   0  0  0  0  0  0  0  0  0  0  0  0
   -4.5005   -7.2896   19.7111 C   0  0  0  0  0  0  0  0  0  0  0  0
   -3.3066   -7.9556   19.3202 N   0  0  0  0  0  0  0  0  0  0  0  0
   -2.0238   -7.5137   19.5402 C   0  0  0  0  0  0  0  0  0  0  0  0
   -1.2197   -8.3105   18.7607 C   0  0  0  0  0  0  0  0  0  0  0  0
   -1.9506   -9.3041   18.1882 N   0  0  0  0  0  0  0  0  0  0  0  0
   -3.1440   -9.2111   18.7462 C   0  0  0  0  0  0  0  0  0  0  0  0
   -4.0926  -10.3719   18.9672 C   0  0  0  0  0  0  0  0  0  0  0  0
   -3.8383  -11.4899   18.0745 N   0  0  0  0  0  0  0  0  0  0  0  0
   -2.7243  -12.5081   18.1700 C   0  0  0  0  0  0  0  0  0  0  0  0
   -2.7424  -14.0553   17.1652 C   0  0  0  0  0  0  0  0  0  0  0  0
   -3.8936  -15.3452   16.7053 N   0  0  0  0  0  0  0  0  0  0  0  0
   -4.3064  -15.5204   15.3245 C   0  0  0  0  0  0  0  0  0  0  0  0
   -4.3924  -16.9137   14.7041 C   0  0  0  0  0  0  0  0  0  0  0  0
   -5.3714  -17.7482   15.4706 C   0  0  0  0  0  0  0  0  0  0  0  0
   -5.3594  -17.4342   16.9589 C   0  0  0  0  0  0  0  0  0  0  0  0
   -4.0492  -16.7361   17.3742 C   0  0  0  0  0  0  0  0  0  0  0  0
   -5.6941   -7.5096   19.0123 C   0  0  0  0  0  0  0  0  0  0  0  0
   -6.8609   -6.8349   19.3811 C   0  0  0  0  0  0  0  0  0  0  0  0
   -7.7511   -5.4034   20.7205 H   0  0  0  0  0  0  0  0  0  0  0  0
   -5.6367   -4.9679   21.9391 H   0  0  0  0  0  0  0  0  0  0  0  0
   -3.5804   -6.1426   21.3229 H   0  0  0  0  0  0  0  0  0  0  0  0
   -1.7929   -6.6745   20.1802 H   0  0  0  0  0  0  0  0  0  0  0  0
   -0.1583   -8.2120   18.5883 H   0  0  0  0  0  0  0  0  0  0  0  0
   -4.2225  -10.6540   20.0120 H   0  0  0  0  0  0  0  0  0  0  0  0
   -5.0943  -10.0449   18.6806 H   0  0  0  0  0  0  0  0  0  0  0  0
   -3.5642  -10.9526   17.2521 H   0  0  0  0  0  0  0  0  0  0  0  0
   -1.7774  -12.0162   17.9506 H   0  0  0  0  0  0  0  0  0  0  0  0
   -2.6116  -12.8496   19.1999 H   0  0  0  0  0  0  0  0  0  0  0  0
   -2.1113  -13.7722   16.3672 H   0  0  0  0  0  0  0  0  0  0  0  0
   -1.9503  -14.5420   17.7540 H   0  0  0  0  0  0  0  0  0  0  0  0
   -5.3441  -15.1933   15.2863 H   0  0  0  0  0  0  0  0  0  0  0  0
   -3.6652  -14.9277   14.7129 H   0  0  0  0  0  0  0  0  0  0  0  0
   -4.7126  -16.8408   13.6577 H   0  0  0  0  0  0  0  0  0  0  0  0
   -3.4277  -17.4198   14.6967 H   0  0  0  0  0  0  0  0  0  0  0  0
   -6.3711  -17.5452   15.0773 H   0  0  0  0  0  0  0  0  0  0  0  0
   -5.1101  -18.7942   15.2891 H   0  0  0  0  0  0  0  0  0  0  0  0
   -5.4878  -18.3593   17.5332 H   0  0  0  0  0  0  0  0  0  0  0  0
   -6.2132  -16.7941   17.2144 H   0  0  0  0  0  0  0  0  0  0  0  0
   -4.0398  -16.7695   18.4675 H   0  0  0  0  0  0  0  0  0  0  0  0
   -3.2667  -17.4464   17.1357 H   0  0  0  0  0  0  0  0  0  0  0  0
   -5.7390   -8.1551   18.1389 H   0  0  0  0  0  0  0  0  0  0  0  0
   -7.7834   -7.0084   18.8314 H   0  0  0  0  0  0  0  0  0  0  0  0
  1  2  2  0
  2  3  1  0
  3  4  2  0
  4  5  1  0
  5  6  1  0
  6  7  2  0
  7  8  1  0
  8  9  2  0
  9 10  1  0
 10 11  1  0
 11 12  1  0
 12 13  1  0
 13 14  1  0
 14 15  1  0
 15 16  1  0
 16 17  1  0
 17 18  1  0
 18 19  1  0
  4 20  1  0
 20 21  2  0
 21  1  1  0
  9  5  1  0
 19 14  1  0
  1 22  1  0
  2 23  1  0
  3 24  1  0
  6 25  1  0
  7 26  1  0
 10 27  1  0
 10 28  1  0
 11 29  1  0
 12 30  1  0
 12 31  1  0
 13 32  1  0
 13 33  1  0
 15 34  1  0
 15 35  1  0
 16 36  1  0
 16 37  1  0
 17 38  1  0
 17 39  1  0
 18 40  1  0
 18 41  1  0
 19 42  1  0
 19 43  1  0
 20 44  1  0
 21 45  1  0
M  END
>  <Energy>  (1320) 
196.53929695051943

>  <compound_id>  (1320) 
17802

>  <target_id>  (1320) 
1

>  <reference_id>  (1320) 
9

>  <inspiration_ids>  (1320) 
[63, 9]

>  <energy_score>  (1320) 
78.91483168789614

>  <distance_score>  (1320) 
15.142284985448224

>  <path>  (1320) 
/opt/xchem-fragalysis-2/maxwin/BulkDock/SCRATCH/511014/C17802-P9/C17802-P9.minimised.mol

>  <scratch_subdir>  (1320) 
/opt/xchem-fragalysis-2/maxwin/BulkDock/SCRATCH/511014/C17802-P9

>  <fragmenstein_runtime>  (1320) 
14.119425058364868

>  <fragmenstein_outcome>  (1320) 
too moved

>  <fragmenstein_mode>  (1320) 
expansion

>  <fragmenstein_error>  (1320) 


$$$$
C17803-P63
     RDKit          3D

 55 56  0  0  0  0  0  0  0  0999 V2000
    4.6815  -10.8707   13.8177 C   0  0  0  0  0  0  0  0  0  0  0  0
    3.2956  -10.4514   14.3564 C   0  0  0  0  0  0  0  0  0  0  0  0
    2.8844   -8.5933   15.2109 C   0  0  0  0  0  0  0  0  0  0  0  0
    1.7982  -11.3177   13.2835 C   0  0  0  0  0  0  0  0  0  0  0  0
    1.9084  -11.0568   11.9274 N   0  0  0  0  0  0  0  0  0  0  0  0
    0.6808  -11.1926   11.5025 C   0  0  0  0  0  0  0  0  0  0  0  0
    0.1589  -12.3593   11.9348 C   0  0  0  0  0  0  0  0  0  0  0  0
    0.4684  -12.5146   13.3071 N   0  0  0  0  0  0  0  0  0  0  0  0
   -0.6401  -13.9227   13.9424 C   0  0  0  0  0  0  0  0  0  0  0  0
   -2.0318  -14.6466   15.3516 C   0  0  0  0  0  0  0  0  0  0  0  0
   -1.7850  -14.3962   16.5054 O   0  0  0  0  0  0  0  0  0  0  0  0
   -3.3802  -15.3795   14.7609 N   0  0  0  0  0  0  0  0  0  0  0  0
   -4.5857  -16.0096   15.4735 C   0  0  0  0  0  0  0  0  0  0  0  0
   -5.3705  -16.9331   14.3700 C   0  0  0  0  0  0  0  0  0  0  0  0
   -5.7102  -16.2381   13.1160 N   0  0  0  0  0  0  0  0  0  0  0  0
   -5.5521  -17.0074   11.8789 C   0  0  0  0  0  0  0  0  0  0  0  0
   -6.7273  -17.8655   11.4169 C   0  0  0  0  0  0  0  0  0  0  0  0
   -8.0716  -17.1641   11.5476 C   0  0  0  0  0  0  0  0  0  0  0  0
   -8.2131  -16.3836   12.8495 C   0  0  0  0  0  0  0  0  0  0  0  0
   -6.9879  -15.5275   13.1556 C   0  0  0  0  0  0  0  0  0  0  0  0
   -4.5765  -16.8359   16.7934 C   0  0  0  0  0  0  0  0  0  0  0  0
   -5.9707  -16.7910   17.4694 C   0  0  0  0  0  0  0  0  0  0  0  0
   -4.2074  -18.3276   16.6668 C   0  0  0  0  0  0  0  0  0  0  0  0
    4.7581  -10.8806   12.7621 H   0  0  0  0  0  0  0  0  0  0  0  0
    4.9462  -11.8873   14.1135 H   0  0  0  0  0  0  0  0  0  0  0  0
    5.5121  -10.3154   14.1361 H   0  0  0  0  0  0  0  0  0  0  0  0
    3.6133  -11.0241   15.2934 H   0  0  0  0  0  0  0  0  0  0  0  0
    2.1655   -8.0618   16.0383 H   0  0  0  0  0  0  0  0  0  0  0  0
    3.1012   -8.7608   16.3323 H   0  0  0  0  0  0  0  0  0  0  0  0
    3.5266   -7.8039   14.7332 H   0  0  0  0  0  0  0  0  0  0  0  0
    0.4890  -10.5561   10.6787 H   0  0  0  0  0  0  0  0  0  0  0  0
   -0.4585  -13.0967   11.4700 H   0  0  0  0  0  0  0  0  0  0  0  0
   -0.3110  -14.5251   13.0868 H   0  0  0  0  0  0  0  0  0  0  0  0
   -1.1224  -13.0057   13.8420 H   0  0  0  0  0  0  0  0  0  0  0  0
   -3.3438  -15.3763   13.7559 H   0  0  0  0  0  0  0  0  0  0  0  0
   -5.2263  -15.1601   15.6807 H   0  0  0  0  0  0  0  0  0  0  0  0
   -6.2692  -17.3744   14.8053 H   0  0  0  0  0  0  0  0  0  0  0  0
   -4.6917  -17.7601   14.1295 H   0  0  0  0  0  0  0  0  0  0  0  0
   -4.6448  -17.6221   11.9153 H   0  0  0  0  0  0  0  0  0  0  0  0
   -5.3533  -16.2759   11.0833 H   0  0  0  0  0  0  0  0  0  0  0  0
   -6.7183  -18.8043   11.9605 H   0  0  0  0  0  0  0  0  0  0  0  0
   -6.5754  -18.1433   10.3665 H   0  0  0  0  0  0  0  0  0  0  0  0
   -8.8854  -17.8894   11.4468 H   0  0  0  0  0  0  0  0  0  0  0  0
   -8.1767  -16.4602   10.7119 H   0  0  0  0  0  0  0  0  0  0  0  0
   -9.0971  -15.7378   12.7815 H   0  0  0  0  0  0  0  0  0  0  0  0
   -8.3925  -17.0397   13.6971 H   0  0  0  0  0  0  0  0  0  0  0  0
   -6.9419  -14.7144   12.4192 H   0  0  0  0  0  0  0  0  0  0  0  0
   -7.1262  -15.0309   14.1230 H   0  0  0  0  0  0  0  0  0  0  0  0
   -3.9073  -16.3504   17.4935 H   0  0  0  0  0  0  0  0  0  0  0  0
   -6.3712  -15.7740   17.5145 H   0  0  0  0  0  0  0  0  0  0  0  0
   -5.9050  -17.1732   18.4943 H   0  0  0  0  0  0  0  0  0  0  0  0
   -6.7110  -17.3987   16.9424 H   0  0  0  0  0  0  0  0  0  0  0  0
   -3.4427  -18.5276   15.9128 H   0  0  0  0  0  0  0  0  0  0  0  0
   -5.0667  -18.9413   16.3968 H   0  0  0  0  0  0  0  0  0  0  0  0
   -3.8452  -18.7049   17.6299 H   0  0  0  0  0  0  0  0  0  0  0  0
  1  2  1  0
  2  3  1  0
  2  4  1  0
  4  5  2  0
  5  6  1  0
  6  7  2  0
  7  8  1  0
  8  9  1  0
  9 10  1  0
 10 11  2  0
 10 12  1  0
 12 13  1  0
 13 14  1  0
 14 15  1  0
 15 16  1  0
 16 17  1  0
 17 18  1  0
 18 19  1  0
 19 20  1  0
 13 21  1  0
 21 22  1  0
 21 23  1  0
  8  4  1  0
 20 15  1  0
  1 24  1  0
  1 25  1  0
  1 26  1  0
  2 27  1  0
  3 28  1  0
  3 29  1  0
  3 30  1  0
  6 31  1  0
  7 32  1  0
  9 33  1  0
  9 34  1  0
 12 35  1  0
 13 36  1  0
 14 37  1  0
 14 38  1  0
 16 39  1  0
 16 40  1  0
 17 41  1  0
 17 42  1  0
 18 43  1  0
 18 44  1  0
 19 45  1  0
 19 46  1  0
 20 47  1  0
 20 48  1  0
 21 49  1  0
 22 50  1  0
 22 51  1  0
 22 52  1  0
 23 53  1  0
 23 54  1  0
 23 55  1  0
M  END
>  <Energy>  (1321) 
633.17882144061912

>  <compound_id>  (1321) 
17803

>  <target_id>  (1321) 
1

>  <reference_id>  (1321) 
63

>  <inspiration_ids>  (1321) 
[63, 9]

>  <energy_score>  (1321) 
532.0606653669411

>  <distance_score>  (1321) 
13.338637136314809

>  <path>  (1321) 
/opt/xchem-fragalysis-2/maxwin/BulkDock/SCRATCH/511014/C17803-P63/C17803-P63.minimised.mol

>  <scratch_subdir>  (1321) 
/opt/xchem-fragalysis-2/maxwin/BulkDock/SCRATCH/511014/C17803-P63

>  <fragmenstein_runtime>  (1321) 
29.044824361801147

>  <fragmenstein_outcome>  (1321) 
too moved

>  <fragmenstein_mode>  (1321) 
expansion

>  <fragmenstein_error>  (1321) 


$$$$
C17803-P9
     RDKit          3D

 55 56  0  0  0  0  0  0  0  0999 V2000
   -5.2007  -15.3415   23.0024 C   0  0  0  0  0  0  0  0  0  0  0  0
   -5.3117  -16.5331   22.0511 C   0  0  0  0  0  0  0  0  0  0  0  0
   -4.2165  -17.5595   22.3412 C   0  0  0  0  0  0  0  0  0  0  0  0
   -5.2300  -16.0758   20.6209 C   0  0  0  0  0  0  0  0  0  0  0  0
   -4.2355  -15.3586   20.1106 N   0  0  0  0  0  0  0  0  0  0  0  0
   -4.5365  -15.1799   18.7927 C   0  0  0  0  0  0  0  0  0  0  0  0
   -5.7402  -15.7835   18.4956 C   0  0  0  0  0  0  0  0  0  0  0  0
   -6.1980  -16.3818   19.6652 N   0  0  0  0  0  0  0  0  0  0  0  0
   -7.6077  -16.9294   19.8810 C   0  0  0  0  0  0  0  0  0  0  0  0
   -7.8625  -18.4616   20.2759 C   0  0  0  0  0  0  0  0  0  0  0  0
   -6.9054  -19.1902   20.3062 O   0  0  0  0  0  0  0  0  0  0  0  0
   -9.3152  -18.7401   20.5800 N   0  0  0  0  0  0  0  0  0  0  0  0
  -10.0094  -20.0148   21.1216 C   0  0  0  0  0  0  0  0  0  0  0  0
  -11.6533  -20.2016   20.8665 C   0  0  0  0  0  0  0  0  0  0  0  0
  -12.4109  -21.5114   20.6113 N   0  0  0  0  0  0  0  0  0  0  0  0
  -12.9607  -21.8803   19.1966 C   0  0  0  0  0  0  0  0  0  0  0  0
  -13.5042  -23.5883   18.2074 C   0  0  0  0  0  0  0  0  0  0  0  0
  -13.2288  -24.8048   19.3417 C   0  0  0  0  0  0  0  0  0  0  0  0
  -12.2920  -24.1894   20.5243 C   0  0  0  0  0  0  0  0  0  0  0  0
  -12.2610  -22.7242   21.3570 C   0  0  0  0  0  0  0  0  0  0  0  0
   -9.7072  -20.1745   22.6448 C   0  0  0  0  0  0  0  0  0  0  0  0
   -8.2535  -20.5679   22.9231 C   0  0  0  0  0  0  0  0  0  0  0  0
  -10.0601  -18.9242   23.4595 C   0  0  0  0  0  0  0  0  0  0  0  0
   -5.2978  -15.6666   24.0438 H   0  0  0  0  0  0  0  0  0  0  0  0
   -5.9906  -14.6084   22.8040 H   0  0  0  0  0  0  0  0  0  0  0  0
   -4.2377  -14.8288   22.8983 H   0  0  0  0  0  0  0  0  0  0  0  0
   -6.2780  -17.0137   22.2390 H   0  0  0  0  0  0  0  0  0  0  0  0
   -3.2165  -17.1328   22.2023 H   0  0  0  0  0  0  0  0  0  0  0  0
   -4.2883  -17.9228   23.3719 H   0  0  0  0  0  0  0  0  0  0  0  0
   -4.3031  -18.4241   21.6736 H   0  0  0  0  0  0  0  0  0  0  0  0
   -3.8846  -14.6242   18.1319 H   0  0  0  0  0  0  0  0  0  0  0  0
   -6.3059  -15.8369   17.5765 H   0  0  0  0  0  0  0  0  0  0  0  0
   -8.1353  -16.7380   18.9399 H   0  0  0  0  0  0  0  0  0  0  0  0
   -8.0294  -16.2915   20.6659 H   0  0  0  0  0  0  0  0  0  0  0  0
   -9.8648  -17.9131   20.3718 H   0  0  0  0  0  0  0  0  0  0  0  0
   -9.5108  -20.8306   20.5931 H   0  0  0  0  0  0  0  0  0  0  0  0
  -12.1415  -19.7880   21.7569 H   0  0  0  0  0  0  0  0  0  0  0  0
  -11.9315  -19.4868   20.0821 H   0  0  0  0  0  0  0  0  0  0  0  0
  -13.1368  -20.8726   18.8291 H   0  0  0  0  0  0  0  0  0  0  0  0
  -12.0118  -22.1190   19.3301 H   0  0  0  0  0  0  0  0  0  0  0  0
  -13.2260  -23.8968   17.2182 H   0  0  0  0  0  0  0  0  0  0  0  0
  -14.5777  -23.7685   18.0105 H   0  0  0  0  0  0  0  0  0  0  0  0
  -12.7431  -25.6809   18.8553 H   0  0  0  0  0  0  0  0  0  0  0  0
  -14.0684  -25.4046   19.6464 H   0  0  0  0  0  0  0  0  0  0  0  0
  -12.5285  -24.9306   21.2006 H   0  0  0  0  0  0  0  0  0  0  0  0
  -11.2725  -24.5202   20.4645 H   0  0  0  0  0  0  0  0  0  0  0  0
  -11.4329  -22.5539   22.0086 H   0  0  0  0  0  0  0  0  0  0  0  0
  -13.0054  -22.7076   22.1561 H   0  0  0  0  0  0  0  0  0  0  0  0
  -10.3244  -20.9934   23.0293 H   0  0  0  0  0  0  0  0  0  0  0  0
   -8.1403  -20.8803   23.9673 H   0  0  0  0  0  0  0  0  0  0  0  0
   -7.5649  -19.7341   22.7619 H   0  0  0  0  0  0  0  0  0  0  0  0
   -7.9406  -21.4062   22.2934 H   0  0  0  0  0  0  0  0  0  0  0  0
   -9.4226  -18.0741   23.1943 H   0  0  0  0  0  0  0  0  0  0  0  0
   -9.9226  -19.1160   24.5295 H   0  0  0  0  0  0  0  0  0  0  0  0
  -11.1012  -18.6241   23.3129 H   0  0  0  0  0  0  0  0  0  0  0  0
  1  2  1  0
  2  3  1  0
  2  4  1  0
  4  5  2  0
  5  6  1  0
  6  7  2  0
  7  8  1  0
  8  9  1  0
  9 10  1  0
 10 11  2  0
 10 12  1  0
 12 13  1  0
 13 14  1  0
 14 15  1  0
 15 16  1  0
 16 17  1  0
 17 18  1  0
 18 19  1  0
 19 20  1  0
 13 21  1  0
 21 22  1  0
 21 23  1  0
  8  4  1  0
 20 15  1  0
  1 24  1  0
  1 25  1  0
  1 26  1  0
  2 27  1  0
  3 28  1  0
  3 29  1  0
  3 30  1  0
  6 31  1  0
  7 32  1  0
  9 33  1  0
  9 34  1  0
 12 35  1  0
 13 36  1  0
 14 37  1  0
 14 38  1  0
 16 39  1  0
 16 40  1  0
 17 41  1  0
 17 42  1  0
 18 43  1  0
 18 44  1  0
 19 45  1  0
 19 46  1  0
 20 47  1  0
 20 48  1  0
 21 49  1  0
 22 50  1  0
 22 51  1  0
 22 52  1  0
 23 53  1  0
 23 54  1  0
 23 55  1  0
M  END
>  <Energy>  (1322) 
275.03433724276573

>  <compound_id>  (1322) 
17803

>  <target_id>  (1322) 
1

>  <reference_id>  (1322) 
9

>  <inspiration_ids>  (1322) 
[63, 9]

>  <energy_score>  (1322) 
173.91618116909348

>  <distance_score>  (1322) 
14.456586795066398

>  <path>  (1322) 
/opt/xchem-fragalysis-2/maxwin/BulkDock/SCRATCH/511014/C17803-P9/C17803-P9.minimised.mol

>  <scratch_subdir>  (1322) 
/opt/xchem-fragalysis-2/maxwin/BulkDock/SCRATCH/511014/C17803-P9

>  <fragmenstein_runtime>  (1322) 
33.97634029388428

>  <fragmenstein_outcome>  (1322) 
too moved

>  <fragmenstein_mode>  (1322) 
expansion

>  <fragmenstein_error>  (1322) 


$$$$
C17804-P63
     RDKit          3D

 48 49  0  0  0  0  0  0  0  0999 V2000
   -7.4163  -27.4414   15.4062 C   0  0  0  0  0  0  0  0  0  0  0  0
   -8.4185  -26.2319   15.6196 C   0  0  0  0  0  0  0  0  0  0  0  0
   -9.9029  -26.7155   15.7909 C   0  0  0  0  0  0  0  0  0  0  0  0
   -7.6860  -24.5029   16.4636 C   0  0  0  0  0  0  0  0  0  0  0  0
   -8.7823  -23.3758   15.2246 C   0  0  0  0  0  0  0  0  0  0  0  0
   -9.4720  -23.7433   13.8779 N   0  0  0  0  0  0  0  0  0  0  0  0
   -9.3798  -22.7283   12.8250 C   0  0  0  0  0  0  0  0  0  0  0  0
   -9.4768  -23.3250   11.4158 C   0  0  0  0  0  0  0  0  0  0  0  0
  -10.7107  -24.1729   11.1699 C   0  0  0  0  0  0  0  0  0  0  0  0
  -11.4734  -24.3920   12.4537 C   0  0  0  0  0  0  0  0  0  0  0  0
  -10.5122  -24.7183   13.6029 C   0  0  0  0  0  0  0  0  0  0  0  0
   -6.5178  -23.7807   17.8317 N   0  0  0  0  0  0  0  0  0  0  0  0
   -5.5378  -24.4213   18.7111 C   0  0  0  0  0  0  0  0  0  0  0  0
   -5.1485  -25.5602   18.7531 O   0  0  0  0  0  0  0  0  0  0  0  0
   -4.9291  -23.2497   19.7803 C   0  0  0  0  0  0  0  0  0  0  0  0
   -4.7227  -21.6874   19.6557 N   0  0  0  0  0  0  0  0  0  0  0  0
   -5.3216  -20.6915   18.9073 C   0  0  0  0  0  0  0  0  0  0  0  0
   -4.7483  -19.4951   19.0314 N   0  0  0  0  0  0  0  0  0  0  0  0
   -3.8525  -19.6174   20.0635 C   0  0  0  0  0  0  0  0  0  0  0  0
   -2.9531  -18.5305   20.5037 N   0  0  0  0  0  0  0  0  0  0  0  0
   -2.6236  -17.6296   19.7007 O   0  0  0  0  0  0  0  0  0  0  0  0
   -2.5709  -18.6917   21.6746 O   0  0  0  0  0  0  0  0  0  0  0  0
   -3.9058  -20.9355   20.5432 C   0  0  0  0  0  0  0  0  0  0  0  0
   -6.3974  -27.1004   15.2072 H   0  0  0  0  0  0  0  0  0  0  0  0
   -7.3693  -28.1320   16.2500 H   0  0  0  0  0  0  0  0  0  0  0  0
   -7.7376  -28.0323   14.5400 H   0  0  0  0  0  0  0  0  0  0  0  0
   -8.5806  -25.9939   14.5636 H   0  0  0  0  0  0  0  0  0  0  0  0
  -10.6312  -25.9357   15.6760 H   0  0  0  0  0  0  0  0  0  0  0  0
  -10.2301  -27.0900   16.7411 H   0  0  0  0  0  0  0  0  0  0  0  0
  -10.1301  -27.4928   15.0510 H   0  0  0  0  0  0  0  0  0  0  0  0
   -8.2879  -24.7818   17.1176 H   0  0  0  0  0  0  0  0  0  0  0  0
   -8.0466  -22.6319   14.9244 H   0  0  0  0  0  0  0  0  0  0  0  0
   -9.4911  -22.7433   15.7399 H   0  0  0  0  0  0  0  0  0  0  0  0
  -10.1499  -21.9631   12.9647 H   0  0  0  0  0  0  0  0  0  0  0  0
   -8.4038  -22.2407   12.8482 H   0  0  0  0  0  0  0  0  0  0  0  0
   -8.5914  -23.9486   11.2420 H   0  0  0  0  0  0  0  0  0  0  0  0
   -9.4443  -22.5148   10.6795 H   0  0  0  0  0  0  0  0  0  0  0  0
  -11.3570  -23.7078   10.4191 H   0  0  0  0  0  0  0  0  0  0  0  0
  -10.4056  -25.1382   10.7471 H   0  0  0  0  0  0  0  0  0  0  0  0
  -12.1911  -25.2105   12.3220 H   0  0  0  0  0  0  0  0  0  0  0  0
  -12.0627  -23.5021   12.6973 H   0  0  0  0  0  0  0  0  0  0  0  0
  -11.1759  -24.8672   14.4293 H   0  0  0  0  0  0  0  0  0  0  0  0
  -10.0621  -25.6767   13.3323 H   0  0  0  0  0  0  0  0  0  0  0  0
   -6.5377  -22.7913   18.0246 H   0  0  0  0  0  0  0  0  0  0  0  0
   -5.5246  -23.3271   20.6980 H   0  0  0  0  0  0  0  0  0  0  0  0
   -3.9021  -23.5767   19.9907 H   0  0  0  0  0  0  0  0  0  0  0  0
   -6.1529  -20.8697   18.2388 H   0  0  0  0  0  0  0  0  0  0  0  0
   -3.3576  -21.4294   21.3346 H   0  0  0  0  0  0  0  0  0  0  0  0
  1  2  1  0
  2  3  1  0
  2  4  1  0
  4  5  1  0
  5  6  1  0
  6  7  1  0
  7  8  1  0
  8  9  1  0
  9 10  1  0
 10 11  1  0
  4 12  1  0
 12 13  1  0
 13 14  2  0
 13 15  1  0
 15 16  1  0
 16 17  1  0
 17 18  2  0
 18 19  1  0
 19 20  1  0
 20 21  2  0
 20 22  1  0
 19 23  2  0
 11  6  1  0
 23 16  1  0
  1 24  1  0
  1 25  1  0
  1 26  1  0
  2 27  1  0
  3 28  1  0
  3 29  1  0
  3 30  1  0
  4 31  1  0
  5 32  1  0
  5 33  1  0
  7 34  1  0
  7 35  1  0
  8 36  1  0
  8 37  1  0
  9 38  1  0
  9 39  1  0
 10 40  1  0
 10 41  1  0
 11 42  1  0
 11 43  1  0
 12 44  1  0
 15 45  1  0
 15 46  1  0
 17 47  1  0
 23 48  1  0
M  CHG  2  20   1  22  -1
M  END
>  <Energy>  (1323) 
430.70139866330788

>  <compound_id>  (1323) 
17804

>  <target_id>  (1323) 
1

>  <reference_id>  (1323) 
63

>  <inspiration_ids>  (1323) 
[63, 9]

>  <energy_score>  (1323) 
239.72365433261712

>  <distance_score>  (1323) 
15.364795197274592

>  <path>  (1323) 
/opt/xchem-fragalysis-2/maxwin/BulkDock/SCRATCH/511014/C17804-P63/C17804-P63.minimised.mol

>  <scratch_subdir>  (1323) 
/opt/xchem-fragalysis-2/maxwin/BulkDock/SCRATCH/511014/C17804-P63

>  <fragmenstein_runtime>  (1323) 
24.257807731628418

>  <fragmenstein_outcome>  (1323) 
too moved

>  <fragmenstein_mode>  (1323) 
expansion

>  <fragmenstein_error>  (1323) 


$$$$
C17804-P9
     RDKit          3D

 48 49  0  0  0  0  0  0  0  0999 V2000
   -8.1686  -16.1154   15.3734 C   0  0  0  0  0  0  0  0  0  0  0  0
   -7.4069  -16.2253   14.0357 C   0  0  0  0  0  0  0  0  0  0  0  0
   -8.3543  -16.5352   12.8663 C   0  0  0  0  0  0  0  0  0  0  0  0
   -5.6459  -16.8127   13.9526 C   0  0  0  0  0  0  0  0  0  0  0  0
   -5.7215  -18.4907   13.2043 C   0  0  0  0  0  0  0  0  0  0  0  0
   -6.5701  -18.9494   12.0765 N   0  0  0  0  0  0  0  0  0  0  0  0
   -6.7394  -18.2330   10.8304 C   0  0  0  0  0  0  0  0  0  0  0  0
   -6.3830  -19.0446    9.5900 C   0  0  0  0  0  0  0  0  0  0  0  0
   -5.2239  -20.0200    9.7819 C   0  0  0  0  0  0  0  0  0  0  0  0
   -5.3004  -20.8072   11.0881 C   0  0  0  0  0  0  0  0  0  0  0  0
   -6.4937  -20.3947   11.9393 C   0  0  0  0  0  0  0  0  0  0  0  0
   -4.0468  -16.3576   15.0582 N   0  0  0  0  0  0  0  0  0  0  0  0
   -2.8153  -14.8996   14.9976 C   0  0  0  0  0  0  0  0  0  0  0  0
   -3.0385  -14.1891   14.0308 O   0  0  0  0  0  0  0  0  0  0  0  0
   -1.2447  -14.0244   16.2653 C   0  0  0  0  0  0  0  0  0  0  0  0
    0.7129  -13.8185   16.5462 N   0  0  0  0  0  0  0  0  0  0  0  0
    1.8765  -14.2248   17.5198 C   0  0  0  0  0  0  0  0  0  0  0  0
    2.9049  -13.1627   17.7995 N   0  0  0  0  0  0  0  0  0  0  0  0
    2.9798  -11.7718   16.7517 C   0  0  0  0  0  0  0  0  0  0  0  0
    4.0223  -10.7010   16.3879 N   0  0  0  0  0  0  0  0  0  0  0  0
    4.6524  -10.8014   15.3181 O   0  0  0  0  0  0  0  0  0  0  0  0
    4.0296   -9.6356   17.0366 O   0  0  0  0  0  0  0  0  0  0  0  0
    1.7846  -12.6174   15.7138 C   0  0  0  0  0  0  0  0  0  0  0  0
   -7.5539  -15.6915   16.1730 H   0  0  0  0  0  0  0  0  0  0  0  0
   -8.5852  -17.0624   15.7080 H   0  0  0  0  0  0  0  0  0  0  0  0
   -9.0221  -15.4352   15.2598 H   0  0  0  0  0  0  0  0  0  0  0  0
   -7.3550  -15.1675   13.7258 H   0  0  0  0  0  0  0  0  0  0  0  0
   -8.6418  -17.5675   12.7392 H   0  0  0  0  0  0  0  0  0  0  0  0
   -7.9248  -16.1617   11.9320 H   0  0  0  0  0  0  0  0  0  0  0  0
   -9.2966  -15.9846   12.9902 H   0  0  0  0  0  0  0  0  0  0  0  0
   -5.5090  -16.0438   13.1550 H   0  0  0  0  0  0  0  0  0  0  0  0
   -5.9215  -19.1839   13.9831 H   0  0  0  0  0  0  0  0  0  0  0  0
   -4.7371  -18.9170   13.0451 H   0  0  0  0  0  0  0  0  0  0  0  0
   -6.2497  -17.2572   10.8061 H   0  0  0  0  0  0  0  0  0  0  0  0
   -7.8049  -18.0007   10.7159 H   0  0  0  0  0  0  0  0  0  0  0  0
   -6.1641  -18.3715    8.7529 H   0  0  0  0  0  0  0  0  0  0  0  0
   -7.2889  -19.5817    9.3141 H   0  0  0  0  0  0  0  0  0  0  0  0
   -4.2812  -19.4603    9.7575 H   0  0  0  0  0  0  0  0  0  0  0  0
   -5.1693  -20.7105    8.9331 H   0  0  0  0  0  0  0  0  0  0  0  0
   -4.3775  -20.6539   11.6539 H   0  0  0  0  0  0  0  0  0  0  0  0
   -5.2993  -21.8843   10.8887 H   0  0  0  0  0  0  0  0  0  0  0  0
   -7.4673  -20.6743   11.5492 H   0  0  0  0  0  0  0  0  0  0  0  0
   -6.4462  -20.9109   12.8984 H   0  0  0  0  0  0  0  0  0  0  0  0
   -3.8725  -16.8594   15.9182 H   0  0  0  0  0  0  0  0  0  0  0  0
   -1.2345  -14.4565   17.3027 H   0  0  0  0  0  0  0  0  0  0  0  0
   -1.6248  -13.1632   16.8361 H   0  0  0  0  0  0  0  0  0  0  0  0
    1.9130  -15.2120   17.9662 H   0  0  0  0  0  0  0  0  0  0  0  0
    1.6518  -12.4668   14.6203 H   0  0  0  0  0  0  0  0  0  0  0  0
  1  2  1  0
  2  3  1  0
  2  4  1  0
  4  5  1  0
  5  6  1  0
  6  7  1  0
  7  8  1  0
  8  9  1  0
  9 10  1  0
 10 11  1  0
  4 12  1  0
 12 13  1  0
 13 14  2  0
 13 15  1  0
 15 16  1  0
 16 17  1  0
 17 18  2  0
 18 19  1  0
 19 20  1  0
 20 21  2  0
 20 22  1  0
 19 23  2  0
 11  6  1  0
 23 16  1  0
  1 24  1  0
  1 25  1  0
  1 26  1  0
  2 27  1  0
  3 28  1  0
  3 29  1  0
  3 30  1  0
  4 31  1  0
  5 32  1  0
  5 33  1  0
  7 34  1  0
  7 35  1  0
  8 36  1  0
  8 37  1  0
  9 38  1  0
  9 39  1  0
 10 40  1  0
 10 41  1  0
 11 42  1  0
 11 43  1  0
 12 44  1  0
 15 45  1  0
 15 46  1  0
 17 47  1  0
 23 48  1  0
M  CHG  2  20   1  22  -1
M  END
>  <Energy>  (1324) 
880.77620421893323

>  <compound_id>  (1324) 
17804

>  <target_id>  (1324) 
1

>  <reference_id>  (1324) 
9

>  <inspiration_ids>  (1324) 
[63, 9]

>  <energy_score>  (1324) 
689.7984598882398

>  <distance_score>  (1324) 
12.223752287348468

>  <path>  (1324) 
/opt/xchem-fragalysis-2/maxwin/BulkDock/SCRATCH/511014/C17804-P9/C17804-P9.minimised.mol

>  <scratch_subdir>  (1324) 
/opt/xchem-fragalysis-2/maxwin/BulkDock/SCRATCH/511014/C17804-P9

>  <fragmenstein_runtime>  (1324) 
23.510608196258545

>  <fragmenstein_outcome>  (1324) 
too moved

>  <fragmenstein_mode>  (1324) 
expansion

>  <fragmenstein_error>  (1324) 


$$$$
C17805-P63
     RDKit          3D

 55 57  0  0  0  0  0  0  0  0999 V2000
   -2.3632  -19.4186   19.7759 C   0  0  0  0  0  0  0  0  0  0  0  0
   -2.6017  -18.2806   20.2696 N   0  0  0  0  0  0  0  0  0  0  0  0
   -4.3818  -19.2242   19.9837 C   0  0  0  0  0  0  0  0  0  0  0  0
   -4.7528  -21.1378   20.7387 C   0  0  0  0  0  0  0  0  0  0  0  0
   -6.1488  -21.9724   21.5022 C   0  0  0  0  0  0  0  0  0  0  0  0
   -6.8113  -23.7149   21.0777 C   0  0  0  0  0  0  0  0  0  0  0  0
   -6.3739  -24.7608   19.5913 C   0  0  0  0  0  0  0  0  0  0  0  0
   -7.0451  -24.5418   17.7313 N   0  0  0  0  0  0  0  0  0  0  0  0
   -8.3809  -25.2983   16.2771 C   0  0  0  0  0  0  0  0  0  0  0  0
   -9.3731  -24.8718   14.8775 C   0  0  0  0  0  0  0  0  0  0  0  0
   -9.1426  -23.4825   14.4855 C   0  0  0  0  0  0  0  0  0  0  0  0
   -7.9170  -22.8263   15.2850 C   0  0  0  0  0  0  0  0  0  0  0  0
   -6.5302  -23.2039   16.8147 C   0  0  0  0  0  0  0  0  0  0  0  0
   -4.7054  -24.2605   19.9077 C   0  0  0  0  0  0  0  0  0  0  0  0
   -3.9754  -22.6388   20.3743 C   0  0  0  0  0  0  0  0  0  0  0  0
   -1.7277  -16.9825   19.3638 C   0  0  0  0  0  0  0  0  0  0  0  0
   -2.2987  -16.4861   18.4519 O   0  0  0  0  0  0  0  0  0  0  0  0
    0.1273  -16.6263   19.7940 N   0  0  0  0  0  0  0  0  0  0  0  0
    1.5811  -15.5193   18.7588 C   0  0  0  0  0  0  0  0  0  0  0  0
    1.4789  -14.0476   17.2529 C   0  0  0  0  0  0  0  0  0  0  0  0
    2.0432  -12.5431   15.8119 C   0  0  0  0  0  0  0  0  0  0  0  0
    3.8379  -11.7112   15.3329 N   0  0  0  0  0  0  0  0  0  0  0  0
    5.1837  -12.0049   14.6567 C   0  0  0  0  0  0  0  0  0  0  0  0
    5.9488  -10.9635   14.2218 C   0  0  0  0  0  0  0  0  0  0  0  0
    5.0482  -10.1222   13.7910 N   0  0  0  0  0  0  0  0  0  0  0  0
    3.9521  -10.6583   14.2800 C   0  0  0  0  0  0  0  0  0  0  0  0
   -1.7217  -19.1622   20.5551 H   0  0  0  0  0  0  0  0  0  0  0  0
   -2.7724  -20.3152   20.2460 H   0  0  0  0  0  0  0  0  0  0  0  0
   -2.3543  -19.1376   18.7483 H   0  0  0  0  0  0  0  0  0  0  0  0
   -4.4646  -19.3799   18.8959 H   0  0  0  0  0  0  0  0  0  0  0  0
   -5.2429  -18.5973   20.2770 H   0  0  0  0  0  0  0  0  0  0  0  0
   -6.8501  -21.3476   22.0665 H   0  0  0  0  0  0  0  0  0  0  0  0
   -7.7141  -23.9240   21.6607 H   0  0  0  0  0  0  0  0  0  0  0  0
   -7.7879  -26.2140   15.7025 H   0  0  0  0  0  0  0  0  0  0  0  0
   -9.1621  -26.1300   16.4752 H   0  0  0  0  0  0  0  0  0  0  0  0
  -10.4349  -25.1067   15.0478 H   0  0  0  0  0  0  0  0  0  0  0  0
   -9.1334  -25.5796   14.0671 H   0  0  0  0  0  0  0  0  0  0  0  0
  -10.0364  -22.8818   14.5805 H   0  0  0  0  0  0  0  0  0  0  0  0
   -9.0463  -23.3955   13.3901 H   0  0  0  0  0  0  0  0  0  0  0  0
   -8.7672  -22.2713   15.7200 H   0  0  0  0  0  0  0  0  0  0  0  0
   -7.5580  -22.1534   14.4990 H   0  0  0  0  0  0  0  0  0  0  0  0
   -5.4667  -22.7780   16.9481 H   0  0  0  0  0  0  0  0  0  0  0  0
   -6.6308  -22.0283   17.4169 H   0  0  0  0  0  0  0  0  0  0  0  0
   -3.9464  -25.0399   19.7301 H   0  0  0  0  0  0  0  0  0  0  0  0
   -2.9032  -22.6105   20.1630 H   0  0  0  0  0  0  0  0  0  0  0  0
    0.3730  -17.0951   20.6572 H   0  0  0  0  0  0  0  0  0  0  0  0
    2.2688  -16.2433   18.2573 H   0  0  0  0  0  0  0  0  0  0  0  0
    2.2896  -14.9053   19.4357 H   0  0  0  0  0  0  0  0  0  0  0  0
    0.5367  -13.6173   17.6137 H   0  0  0  0  0  0  0  0  0  0  0  0
    1.1797  -14.6549   16.4582 H   0  0  0  0  0  0  0  0  0  0  0  0
    1.5908  -12.5693   14.8163 H   0  0  0  0  0  0  0  0  0  0  0  0
    2.6677  -11.7327   16.5645 H   0  0  0  0  0  0  0  0  0  0  0  0
    5.4653  -12.9302   14.2349 H   0  0  0  0  0  0  0  0  0  0  0  0
    6.9718  -10.9460   13.8730 H   0  0  0  0  0  0  0  0  0  0  0  0
    3.0973  -10.6700   13.7061 H   0  0  0  0  0  0  0  0  0  0  0  0
  1  2  1  0
  2  3  1  0
  3  4  1  0
  4  5  2  0
  5  6  1  0
  6  7  2  0
  7  8  1  0
  8  9  1  0
  9 10  1  0
 10 11  1  0
 11 12  1  0
 12 13  1  0
  7 14  1  0
 14 15  2  0
  2 16  1  0
 16 17  2  0
 16 18  1  0
 18 19  1  0
 19 20  1  0
 20 21  1  0
 21 22  1  0
 22 23  1  0
 23 24  2  0
 24 25  1  0
 25 26  2  0
 15  4  1  0
 26 22  1  0
 13  8  1  0
  1 27  1  0
  1 28  1  0
  1 29  1  0
  3 30  1  0
  3 31  1  0
  5 32  1  0
  6 33  1  0
  9 34  1  0
  9 35  1  0
 10 36  1  0
 10 37  1  0
 11 38  1  0
 11 39  1  0
 12 40  1  0
 12 41  1  0
 13 42  1  0
 13 43  1  0
 14 44  1  0
 15 45  1  0
 18 46  1  0
 19 47  1  0
 19 48  1  0
 20 49  1  0
 20 50  1  0
 21 51  1  0
 21 52  1  0
 23 53  1  0
 24 54  1  0
 26 55  1  0
M  END
>  <Energy>  (1325) 
2020.4088318284023

>  <compound_id>  (1325) 
17805

>  <target_id>  (1325) 
1

>  <reference_id>  (1325) 
63

>  <inspiration_ids>  (1325) 
[63, 9]

>  <energy_score>  (1325) 
2042.1466953471554

>  <distance_score>  (1325) 
8.836269094877796

>  <path>  (1325) 
/opt/xchem-fragalysis-2/maxwin/BulkDock/SCRATCH/511014/C17805-P63/C17805-P63.minimised.mol

>  <scratch_subdir>  (1325) 
/opt/xchem-fragalysis-2/maxwin/BulkDock/SCRATCH/511014/C17805-P63

>  <fragmenstein_runtime>  (1325) 
30.78804349899292

>  <fragmenstein_outcome>  (1325) 
too moved

>  <fragmenstein_mode>  (1325) 
expansion

>  <fragmenstein_error>  (1325) 


$$$$
C17805-P9
     RDKit          3D

 55 57  0  0  0  0  0  0  0  0999 V2000
   -5.9481  -13.6294   17.1968 C   0  0  0  0  0  0  0  0  0  0  0  0
   -5.1571  -15.2092   17.4030 N   0  0  0  0  0  0  0  0  0  0  0  0
   -6.7521  -15.7980   16.6428 C   0  0  0  0  0  0  0  0  0  0  0  0
   -8.2049  -16.6878   16.8806 C   0  0  0  0  0  0  0  0  0  0  0  0
   -9.1565  -16.7112   15.6738 C   0  0  0  0  0  0  0  0  0  0  0  0
  -10.2573  -17.5824   15.3383 C   0  0  0  0  0  0  0  0  0  0  0  0
  -10.1297  -18.7868   16.0039 C   0  0  0  0  0  0  0  0  0  0  0  0
  -10.0343  -20.4016   15.1102 N   0  0  0  0  0  0  0  0  0  0  0  0
  -10.5134  -20.5655   13.6513 C   0  0  0  0  0  0  0  0  0  0  0  0
  -10.3554  -21.9713   12.8762 C   0  0  0  0  0  0  0  0  0  0  0  0
   -9.3912  -22.9923   13.2968 C   0  0  0  0  0  0  0  0  0  0  0  0
   -9.8446  -23.2230   14.6801 C   0  0  0  0  0  0  0  0  0  0  0  0
   -9.4986  -21.9456   15.4656 C   0  0  0  0  0  0  0  0  0  0  0  0
   -9.4981  -18.5503   17.5729 C   0  0  0  0  0  0  0  0  0  0  0  0
   -8.5764  -17.5103   17.9286 C   0  0  0  0  0  0  0  0  0  0  0  0
   -3.4380  -15.1527   16.7187 C   0  0  0  0  0  0  0  0  0  0  0  0
   -3.2918  -15.4548   15.6031 O   0  0  0  0  0  0  0  0  0  0  0  0
   -2.0227  -14.4700   17.7554 N   0  0  0  0  0  0  0  0  0  0  0  0
   -0.2027  -14.0226   17.2867 C   0  0  0  0  0  0  0  0  0  0  0  0
    1.8469  -14.0467   17.5654 C   0  0  0  0  0  0  0  0  0  0  0  0
    3.3776  -12.6242   17.7319 C   0  0  0  0  0  0  0  0  0  0  0  0
    4.2231  -11.2275   16.8093 N   0  0  0  0  0  0  0  0  0  0  0  0
    4.5635  -11.0283   15.3857 C   0  0  0  0  0  0  0  0  0  0  0  0
    5.9348  -10.8196   15.1167 C   0  0  0  0  0  0  0  0  0  0  0  0
    6.6247  -10.4940   16.3302 N   0  0  0  0  0  0  0  0  0  0  0  0
    5.7033  -10.5369   17.3245 C   0  0  0  0  0  0  0  0  0  0  0  0
   -7.0364  -13.6989   16.9645 H   0  0  0  0  0  0  0  0  0  0  0  0
   -6.0442  -12.9421   18.1576 H   0  0  0  0  0  0  0  0  0  0  0  0
   -5.2842  -12.8446   17.1209 H   0  0  0  0  0  0  0  0  0  0  0  0
   -6.2268  -16.1580   15.7983 H   0  0  0  0  0  0  0  0  0  0  0  0
   -7.1453  -15.0278   16.0024 H   0  0  0  0  0  0  0  0  0  0  0  0
   -8.9215  -16.0017   14.8756 H   0  0  0  0  0  0  0  0  0  0  0  0
  -10.7501  -17.4661   14.3824 H   0  0  0  0  0  0  0  0  0  0  0  0
  -10.0144  -19.8359   13.0280 H   0  0  0  0  0  0  0  0  0  0  0  0
  -11.5478  -20.2986   13.6250 H   0  0  0  0  0  0  0  0  0  0  0  0
  -10.0081  -21.8559   11.8579 H   0  0  0  0  0  0  0  0  0  0  0  0
  -11.3350  -22.4589   12.8059 H   0  0  0  0  0  0  0  0  0  0  0  0
   -8.3872  -22.5798   13.1623 H   0  0  0  0  0  0  0  0  0  0  0  0
   -9.4741  -23.9037   12.6935 H   0  0  0  0  0  0  0  0  0  0  0  0
   -9.3535  -24.0770   15.1298 H   0  0  0  0  0  0  0  0  0  0  0  0
  -10.8587  -23.5812   14.5672 H   0  0  0  0  0  0  0  0  0  0  0  0
   -8.4483  -22.0808   15.1708 H   0  0  0  0  0  0  0  0  0  0  0  0
   -9.5840  -22.0075   16.5127 H   0  0  0  0  0  0  0  0  0  0  0  0
   -9.3736  -19.4433   18.1978 H   0  0  0  0  0  0  0  0  0  0  0  0
   -8.0041  -17.6011   18.8450 H   0  0  0  0  0  0  0  0  0  0  0  0
   -2.3557  -14.2052   18.6198 H   0  0  0  0  0  0  0  0  0  0  0  0
   -0.1035  -14.9769   17.7940 H   0  0  0  0  0  0  0  0  0  0  0  0
   -0.3332  -14.1922   16.2565 H   0  0  0  0  0  0  0  0  0  0  0  0
    2.1322  -14.7246   18.3866 H   0  0  0  0  0  0  0  0  0  0  0  0
    2.1502  -14.7251   16.7647 H   0  0  0  0  0  0  0  0  0  0  0  0
    4.1802  -12.9988   18.3707 H   0  0  0  0  0  0  0  0  0  0  0  0
    2.9350  -11.7765   18.1222 H   0  0  0  0  0  0  0  0  0  0  0  0
    3.8156  -10.6707   14.7266 H   0  0  0  0  0  0  0  0  0  0  0  0
    6.4186  -10.6553   14.1617 H   0  0  0  0  0  0  0  0  0  0  0  0
    5.9928  -10.5684   18.3648 H   0  0  0  0  0  0  0  0  0  0  0  0
  1  2  1  0
  2  3  1  0
  3  4  1  0
  4  5  2  0
  5  6  1  0
  6  7  2  0
  7  8  1  0
  8  9  1  0
  9 10  1  0
 10 11  1  0
 11 12  1  0
 12 13  1  0
  7 14  1  0
 14 15  2  0
  2 16  1  0
 16 17  2  0
 16 18  1  0
 18 19  1  0
 19 20  1  0
 20 21  1  0
 21 22  1  0
 22 23  1  0
 23 24  2  0
 24 25  1  0
 25 26  2  0
 15  4  1  0
 26 22  1  0
 13  8  1  0
  1 27  1  0
  1 28  1  0
  1 29  1  0
  3 30  1  0
  3 31  1  0
  5 32  1  0
  6 33  1  0
  9 34  1  0
  9 35  1  0
 10 36  1  0
 10 37  1  0
 11 38  1  0
 11 39  1  0
 12 40  1  0
 12 41  1  0
 13 42  1  0
 13 43  1  0
 14 44  1  0
 15 45  1  0
 18 46  1  0
 19 47  1  0
 19 48  1  0
 20 49  1  0
 20 50  1  0
 21 51  1  0
 21 52  1  0
 23 53  1  0
 24 54  1  0
 26 55  1  0
M  END
>  <Energy>  (1326) 
957.37531403405251

>  <compound_id>  (1326) 
17805

>  <target_id>  (1326) 
1

>  <reference_id>  (1326) 
9

>  <inspiration_ids>  (1326) 
[63, 9]

>  <energy_score>  (1326) 
979.1131775527573

>  <distance_score>  (1326) 
8.958821409185756

>  <path>  (1326) 
/opt/xchem-fragalysis-2/maxwin/BulkDock/SCRATCH/511014/C17805-P9/C17805-P9.minimised.mol

>  <scratch_subdir>  (1326) 
/opt/xchem-fragalysis-2/maxwin/BulkDock/SCRATCH/511014/C17805-P9

>  <fragmenstein_runtime>  (1326) 
28.32431435585022

>  <fragmenstein_outcome>  (1326) 
too moved

>  <fragmenstein_mode>  (1326) 
expansion

>  <fragmenstein_error>  (1326) 


$$$$
C17806-P63
     RDKit          3D

 42 44  0  0  0  0  0  0  0  0999 V2000
   -3.3621  -19.4359   18.7197 O   0  0  0  0  0  0  0  0  0  0  0  0
   -4.0803  -18.5131   18.8313 C   0  0  0  0  0  0  0  0  0  0  0  0
   -3.0003  -16.8594   19.1402 C   0  0  0  0  0  0  0  0  0  0  0  0
   -1.4034  -15.0952   18.7808 S   0  0  0  0  0  0  0  0  0  0  0  0
    0.8538  -14.4018   17.9724 C   0  0  0  0  0  0  0  0  0  0  0  0
    1.7417  -13.4668   18.1164 N   0  0  0  0  0  0  0  0  0  0  0  0
    3.3994  -13.5824   18.3059 C   0  0  0  0  0  0  0  0  0  0  0  0
    3.6244  -14.8422   18.1229 C   0  0  0  0  0  0  0  0  0  0  0  0
    2.3401  -15.2906   18.1362 N   0  0  0  0  0  0  0  0  0  0  0  0
   -5.8857  -18.7209   18.8327 N   0  0  0  0  0  0  0  0  0  0  0  0
   -6.9699  -20.2371   18.5538 C   0  0  0  0  0  0  0  0  0  0  0  0
   -6.9462  -21.3905   17.1444 C   0  0  0  0  0  0  0  0  0  0  0  0
   -7.8418  -22.3119   15.5604 C   0  0  0  0  0  0  0  0  0  0  0  0
   -9.2150  -22.2137   15.6014 C   0  0  0  0  0  0  0  0  0  0  0  0
   -9.9452  -22.7951   14.4887 N   0  0  0  0  0  0  0  0  0  0  0  0
  -10.0410  -24.3211   14.3379 C   0  0  0  0  0  0  0  0  0  0  0  0
  -10.9025  -24.8674   13.1992 C   0  0  0  0  0  0  0  0  0  0  0  0
  -10.3755  -24.3514   11.8928 C   0  0  0  0  0  0  0  0  0  0  0  0
  -10.5266  -22.8625   11.9896 C   0  0  0  0  0  0  0  0  0  0  0  0
   -9.7582  -22.2075   13.1332 C   0  0  0  0  0  0  0  0  0  0  0  0
   -9.3073  -21.0464   17.0317 C   0  0  0  0  0  0  0  0  0  0  0  0
   -8.4802  -20.0734   18.3843 C   0  0  0  0  0  0  0  0  0  0  0  0
   -3.1198  -16.6764   20.1928 H   0  0  0  0  0  0  0  0  0  0  0  0
   -3.7121  -16.4906   18.4118 H   0  0  0  0  0  0  0  0  0  0  0  0
    3.9956  -12.6755   18.3954 H   0  0  0  0  0  0  0  0  0  0  0  0
    4.5511  -15.3875   18.0943 H   0  0  0  0  0  0  0  0  0  0  0  0
    2.3312  -16.2765   17.9582 H   0  0  0  0  0  0  0  0  0  0  0  0
   -6.3179  -17.8289   19.0227 H   0  0  0  0  0  0  0  0  0  0  0  0
   -7.6479  -20.7006   17.0644 H   0  0  0  0  0  0  0  0  0  0  0  0
   -7.4818  -22.3707   14.5479 H   0  0  0  0  0  0  0  0  0  0  0  0
  -10.4967  -24.8288   15.1764 H   0  0  0  0  0  0  0  0  0  0  0  0
   -9.0871  -24.7688   14.1730 H   0  0  0  0  0  0  0  0  0  0  0  0
  -11.9549  -24.5918   13.3372 H   0  0  0  0  0  0  0  0  0  0  0  0
  -10.8616  -25.9634   13.2026 H   0  0  0  0  0  0  0  0  0  0  0  0
  -10.9649  -24.7459   11.0585 H   0  0  0  0  0  0  0  0  0  0  0  0
   -9.3303  -24.6376   11.7319 H   0  0  0  0  0  0  0  0  0  0  0  0
  -10.2314  -22.4055   11.0398 H   0  0  0  0  0  0  0  0  0  0  0  0
  -11.5845  -22.6697   12.1556 H   0  0  0  0  0  0  0  0  0  0  0  0
   -8.7067  -22.2363   12.8332 H   0  0  0  0  0  0  0  0  0  0  0  0
  -10.1638  -21.1931   13.1449 H   0  0  0  0  0  0  0  0  0  0  0  0
   -9.3541  -21.7236   17.8889 H   0  0  0  0  0  0  0  0  0  0  0  0
   -9.0143  -19.1849   18.7125 H   0  0  0  0  0  0  0  0  0  0  0  0
  1  2  2  0
  2  3  1  0
  3  4  1  0
  4  5  1  0
  5  6  2  0
  6  7  1  0
  7  8  2  0
  8  9  1  0
  2 10  1  0
 10 11  1  0
 11 12  2  0
 12 13  1  0
 13 14  2  0
 14 15  1  0
 15 16  1  0
 16 17  1  0
 17 18  1  0
 18 19  1  0
 19 20  1  0
 14 21  1  0
 21 22  2  0
  9  5  1  0
 22 11  1  0
 20 15  1  0
  3 23  1  0
  3 24  1  0
  7 25  1  0
  8 26  1  0
  9 27  1  0
 10 28  1  0
 12 29  1  0
 13 30  1  0
 16 31  1  0
 16 32  1  0
 17 33  1  0
 17 34  1  0
 18 35  1  0
 18 36  1  0
 19 37  1  0
 19 38  1  0
 20 39  1  0
 20 40  1  0
 21 41  1  0
 22 42  1  0
M  END
>  <Energy>  (1327) 
1301.8013176141328

>  <compound_id>  (1327) 
17806

>  <target_id>  (1327) 
1

>  <reference_id>  (1327) 
63

>  <inspiration_ids>  (1327) 
[63, 9]

>  <energy_score>  (1327) 
1249.0452758194838

>  <distance_score>  (1327) 
10.393015129960961

>  <path>  (1327) 
/opt/xchem-fragalysis-2/maxwin/BulkDock/SCRATCH/511014/C17806-P63/C17806-P63.minimised.mol

>  <scratch_subdir>  (1327) 
/opt/xchem-fragalysis-2/maxwin/BulkDock/SCRATCH/511014/C17806-P63

>  <fragmenstein_runtime>  (1327) 
35.69970178604126

>  <fragmenstein_outcome>  (1327) 
too moved

>  <fragmenstein_mode>  (1327) 
expansion

>  <fragmenstein_error>  (1327) 


$$$$
C17806-P9
     RDKit          3D

 42 44  0  0  0  0  0  0  0  0999 V2000
   -6.4285  -17.4984   20.3156 O   0  0  0  0  0  0  0  0  0  0  0  0
   -5.7773  -17.9778   19.4269 C   0  0  0  0  0  0  0  0  0  0  0  0
   -4.1066  -17.1454   18.7453 C   0  0  0  0  0  0  0  0  0  0  0  0
   -2.1450  -15.7720   19.3202 S   0  0  0  0  0  0  0  0  0  0  0  0
   -0.1977  -15.5255   18.2471 C   0  0  0  0  0  0  0  0  0  0  0  0
    0.8956  -16.3778   18.3657 N   0  0  0  0  0  0  0  0  0  0  0  0
    2.0767  -15.8003   17.9944 C   0  0  0  0  0  0  0  0  0  0  0  0
    1.8019  -14.5281   17.6145 C   0  0  0  0  0  0  0  0  0  0  0  0
    0.3485  -14.2906   17.5068 N   0  0  0  0  0  0  0  0  0  0  0  0
   -6.0492  -19.1520   18.5701 N   0  0  0  0  0  0  0  0  0  0  0  0
   -7.4914  -20.2221   18.4375 C   0  0  0  0  0  0  0  0  0  0  0  0
   -8.8076  -20.1977   17.9545 C   0  0  0  0  0  0  0  0  0  0  0  0
   -9.5543  -21.2274   16.5933 C   0  0  0  0  0  0  0  0  0  0  0  0
   -9.2714  -22.2156   15.4113 C   0  0  0  0  0  0  0  0  0  0  0  0
   -9.9465  -23.0845   14.5840 N   0  0  0  0  0  0  0  0  0  0  0  0
   -9.9816  -22.6307   13.1999 C   0  0  0  0  0  0  0  0  0  0  0  0
  -10.9678  -23.4487   12.3546 C   0  0  0  0  0  0  0  0  0  0  0  0
  -10.8283  -24.9564   12.3800 C   0  0  0  0  0  0  0  0  0  0  0  0
   -9.7976  -25.3511   13.3953 C   0  0  0  0  0  0  0  0  0  0  0  0
  -10.0331  -24.5767   14.6924 C   0  0  0  0  0  0  0  0  0  0  0  0
   -8.0004  -22.2540   15.7445 C   0  0  0  0  0  0  0  0  0  0  0  0
   -7.3174  -21.2098   17.2831 C   0  0  0  0  0  0  0  0  0  0  0  0
   -4.0167  -17.0672   19.8378 H   0  0  0  0  0  0  0  0  0  0  0  0
   -4.5424  -16.6861   17.8635 H   0  0  0  0  0  0  0  0  0  0  0  0
    3.0371  -16.2804   18.1156 H   0  0  0  0  0  0  0  0  0  0  0  0
    2.5487  -13.7856   17.6749 H   0  0  0  0  0  0  0  0  0  0  0  0
   -0.1742  -13.4426   17.3419 H   0  0  0  0  0  0  0  0  0  0  0  0
   -5.2397  -19.3243   17.9777 H   0  0  0  0  0  0  0  0  0  0  0  0
   -9.3629  -19.2766   18.1692 H   0  0  0  0  0  0  0  0  0  0  0  0
   -9.6845  -22.0630   17.2210 H   0  0  0  0  0  0  0  0  0  0  0  0
  -10.2812  -21.5836   13.1644 H   0  0  0  0  0  0  0  0  0  0  0  0
   -8.9771  -22.6909   12.7734 H   0  0  0  0  0  0  0  0  0  0  0  0
  -10.8304  -23.1488   11.3199 H   0  0  0  0  0  0  0  0  0  0  0  0
  -11.9926  -23.2095   12.6559 H   0  0  0  0  0  0  0  0  0  0  0  0
  -11.7967  -25.4119   12.6213 H   0  0  0  0  0  0  0  0  0  0  0  0
  -10.5489  -25.3380   11.3910 H   0  0  0  0  0  0  0  0  0  0  0  0
   -9.8552  -26.4289   13.5862 H   0  0  0  0  0  0  0  0  0  0  0  0
   -8.8149  -25.1597   12.9621 H   0  0  0  0  0  0  0  0  0  0  0  0
  -11.0328  -24.8707   15.0150 H   0  0  0  0  0  0  0  0  0  0  0  0
   -9.3812  -25.0007   15.4307 H   0  0  0  0  0  0  0  0  0  0  0  0
   -7.4449  -23.0608   15.4935 H   0  0  0  0  0  0  0  0  0  0  0  0
   -6.2950  -21.4140   17.3861 H   0  0  0  0  0  0  0  0  0  0  0  0
  1  2  2  0
  2  3  1  0
  3  4  1  0
  4  5  1  0
  5  6  2  0
  6  7  1  0
  7  8  2  0
  8  9  1  0
  2 10  1  0
 10 11  1  0
 11 12  2  0
 12 13  1  0
 13 14  2  0
 14 15  1  0
 15 16  1  0
 16 17  1  0
 17 18  1  0
 18 19  1  0
 19 20  1  0
 14 21  1  0
 21 22  2  0
  9  5  1  0
 22 11  1  0
 20 15  1  0
  3 23  1  0
  3 24  1  0
  7 25  1  0
  8 26  1  0
  9 27  1  0
 10 28  1  0
 12 29  1  0
 13 30  1  0
 16 31  1  0
 16 32  1  0
 17 33  1  0
 17 34  1  0
 18 35  1  0
 18 36  1  0
 19 37  1  0
 19 38  1  0
 20 39  1  0
 20 40  1  0
 21 41  1  0
 22 42  1  0
M  END
>  <Energy>  (1328) 
721.66978508987199

>  <compound_id>  (1328) 
17806

>  <target_id>  (1328) 
1

>  <reference_id>  (1328) 
9

>  <inspiration_ids>  (1328) 
[63, 9]

>  <energy_score>  (1328) 
668.9137432951898

>  <distance_score>  (1328) 
11.302734320798434

>  <path>  (1328) 
/opt/xchem-fragalysis-2/maxwin/BulkDock/SCRATCH/511014/C17806-P9/C17806-P9.minimised.mol

>  <scratch_subdir>  (1328) 
/opt/xchem-fragalysis-2/maxwin/BulkDock/SCRATCH/511014/C17806-P9

>  <fragmenstein_runtime>  (1328) 
21.829445123672485

>  <fragmenstein_outcome>  (1328) 
too moved

>  <fragmenstein_mode>  (1328) 
expansion

>  <fragmenstein_error>  (1328) 


$$$$
C17807-P63
     RDKit          3D

 43 44  0  0  0  0  0  0  0  0999 V2000
   -1.9516  -12.0237   19.8380 C   0  0  0  0  0  0  0  0  0  0  0  0
   -1.7470  -11.8890   18.1470 C   0  0  0  0  0  0  0  0  0  0  0  0
   -2.7190  -12.8083   17.8105 N   0  0  0  0  0  0  0  0  0  0  0  0
   -2.6481  -14.3761   16.8848 C   0  0  0  0  0  0  0  0  0  0  0  0
   -1.6578  -14.7009   16.3724 O   0  0  0  0  0  0  0  0  0  0  0  0
   -4.0238  -15.8747   16.7170 C   0  0  0  0  0  0  0  0  0  0  0  0
   -4.5778  -17.9490   17.6408 S   0  0  0  0  0  0  0  0  0  0  0  0
   -5.3961  -19.8161   16.5577 C   0  0  0  0  0  0  0  0  0  0  0  0
   -6.9282  -21.1463   16.8232 C   0  0  0  0  0  0  0  0  0  0  0  0
   -7.2601  -21.1695   18.0374 O   0  0  0  0  0  0  0  0  0  0  0  0
   -7.7047  -22.2947   15.3592 N   0  0  0  0  0  0  0  0  0  0  0  0
   -9.0520  -21.8918   14.3916 C   0  0  0  0  0  0  0  0  0  0  0  0
   -8.9896  -22.3474   12.8978 C   0  0  0  0  0  0  0  0  0  0  0  0
   -9.5440  -23.7543   12.8185 C   0  0  0  0  0  0  0  0  0  0  0  0
   -9.5028  -24.3780   14.2098 C   0  0  0  0  0  0  0  0  0  0  0  0
   -8.7272  -23.4508   15.4370 C   0  0  0  0  0  0  0  0  0  0  0  0
   -2.2388  -10.4074   18.1900 C   0  0  0  0  0  0  0  0  0  0  0  0
   -1.6332   -9.3545   17.7138 N   0  0  0  0  0  0  0  0  0  0  0  0
   -1.1895   -8.7565   18.8387 C   0  0  0  0  0  0  0  0  0  0  0  0
   -2.0067   -9.0341   19.8894 C   0  0  0  0  0  0  0  0  0  0  0  0
   -2.8985   -9.8497   19.2815 N   0  0  0  0  0  0  0  0  0  0  0  0
   -1.3561  -11.3336   20.4278 H   0  0  0  0  0  0  0  0  0  0  0  0
   -1.8595  -12.9774   20.3213 H   0  0  0  0  0  0  0  0  0  0  0  0
   -3.0021  -11.8855   20.1172 H   0  0  0  0  0  0  0  0  0  0  0  0
   -0.8046  -12.3084   17.9510 H   0  0  0  0  0  0  0  0  0  0  0  0
   -3.5773  -12.6534   18.0778 H   0  0  0  0  0  0  0  0  0  0  0  0
   -4.9268  -15.5550   17.1965 H   0  0  0  0  0  0  0  0  0  0  0  0
   -4.0125  -16.2537   15.6922 H   0  0  0  0  0  0  0  0  0  0  0  0
   -4.5247  -20.4272   16.8395 H   0  0  0  0  0  0  0  0  0  0  0  0
   -5.2473  -19.3728   15.5595 H   0  0  0  0  0  0  0  0  0  0  0  0
  -10.0373  -22.3422   14.5326 H   0  0  0  0  0  0  0  0  0  0  0  0
   -9.6170  -21.0368   14.7952 H   0  0  0  0  0  0  0  0  0  0  0  0
   -7.9714  -22.2898   12.5169 H   0  0  0  0  0  0  0  0  0  0  0  0
   -9.6010  -21.6946   12.2624 H   0  0  0  0  0  0  0  0  0  0  0  0
   -8.9819  -24.3513   12.0918 H   0  0  0  0  0  0  0  0  0  0  0  0
  -10.5810  -23.7321   12.4618 H   0  0  0  0  0  0  0  0  0  0  0  0
  -10.5245  -24.5741   14.5402 H   0  0  0  0  0  0  0  0  0  0  0  0
   -9.1224  -25.4056   14.1527 H   0  0  0  0  0  0  0  0  0  0  0  0
   -9.5477  -22.9716   15.9673 H   0  0  0  0  0  0  0  0  0  0  0  0
   -8.3094  -24.1804   16.1059 H   0  0  0  0  0  0  0  0  0  0  0  0
   -0.2440   -8.2474   18.8667 H   0  0  0  0  0  0  0  0  0  0  0  0
   -2.0185   -8.8247   20.9491 H   0  0  0  0  0  0  0  0  0  0  0  0
   -3.5864  -10.3156   19.8428 H   0  0  0  0  0  0  0  0  0  0  0  0
  1  2  1  0
  2  3  1  0
  3  4  1  0
  4  5  2  0
  4  6  1  0
  6  7  1  0
  7  8  1  0
  8  9  1  0
  9 10  2  0
  9 11  1  0
 11 12  1  0
 12 13  1  0
 13 14  1  0
 14 15  1  0
 15 16  1  0
  2 17  1  0
 17 18  2  0
 18 19  1  0
 19 20  2  0
 20 21  1  0
 16 11  1  0
 21 17  1  0
  1 22  1  0
  1 23  1  0
  1 24  1  0
  2 25  1  0
  3 26  1  0
  6 27  1  0
  6 28  1  0
  8 29  1  0
  8 30  1  0
 12 31  1  0
 12 32  1  0
 13 33  1  0
 13 34  1  0
 14 35  1  0
 14 36  1  0
 15 37  1  0
 15 38  1  0
 16 39  1  0
 16 40  1  0
 19 41  1  0
 20 42  1  0
 21 43  1  0
M  END
>  <Energy>  (1329) 
850.79993809572204

>  <compound_id>  (1329) 
17807

>  <target_id>  (1329) 
1

>  <reference_id>  (1329) 
63

>  <inspiration_ids>  (1329) 
[63, 9]

>  <energy_score>  (1329) 
791.8982026477684

>  <distance_score>  (1329) 
11.311447001682582

>  <path>  (1329) 
/opt/xchem-fragalysis-2/maxwin/BulkDock/SCRATCH/511014/C17807-P63/C17807-P63.minimised.mol

>  <scratch_subdir>  (1329) 
/opt/xchem-fragalysis-2/maxwin/BulkDock/SCRATCH/511014/C17807-P63

>  <fragmenstein_runtime>  (1329) 
19.80027723312378

>  <fragmenstein_outcome>  (1329) 
too moved

>  <fragmenstein_mode>  (1329) 
expansion

>  <fragmenstein_error>  (1329) 


$$$$
C17807-P9
     RDKit          3D

 43 44  0  0  0  0  0  0  0  0999 V2000
   -3.6465  -12.2222   18.9662 C   0  0  0  0  0  0  0  0  0  0  0  0
   -2.1916  -12.7891   18.1797 C   0  0  0  0  0  0  0  0  0  0  0  0
   -2.6456  -14.3892   17.6304 N   0  0  0  0  0  0  0  0  0  0  0  0
   -2.5897  -16.0296   18.4861 C   0  0  0  0  0  0  0  0  0  0  0  0
   -2.0911  -16.1340   19.5616 O   0  0  0  0  0  0  0  0  0  0  0  0
   -3.6567  -17.4403   17.3382 C   0  0  0  0  0  0  0  0  0  0  0  0
   -5.2854  -19.2218   17.6946 S   0  0  0  0  0  0  0  0  0  0  0  0
   -7.0309  -20.8648   17.2240 C   0  0  0  0  0  0  0  0  0  0  0  0
   -7.6714  -22.2546   15.6905 C   0  0  0  0  0  0  0  0  0  0  0  0
   -7.2392  -23.2961   15.9233 O   0  0  0  0  0  0  0  0  0  0  0  0
   -8.4231  -21.9385   14.4228 N   0  0  0  0  0  0  0  0  0  0  0  0
   -9.8157  -22.1687   14.6067 C   0  0  0  0  0  0  0  0  0  0  0  0
  -10.1315  -23.7707   14.7254 C   0  0  0  0  0  0  0  0  0  0  0  0
  -10.6399  -24.3017   13.4360 C   0  0  0  0  0  0  0  0  0  0  0  0
   -9.3978  -24.1252   12.6615 C   0  0  0  0  0  0  0  0  0  0  0  0
   -8.7106  -22.7916   13.1008 C   0  0  0  0  0  0  0  0  0  0  0  0
   -2.1991  -11.1726   17.9477 C   0  0  0  0  0  0  0  0  0  0  0  0
   -1.4078  -10.4029   18.6141 N   0  0  0  0  0  0  0  0  0  0  0  0
   -1.6599   -9.1012   18.4264 C   0  0  0  0  0  0  0  0  0  0  0  0
   -2.8079   -9.0099   17.7394 C   0  0  0  0  0  0  0  0  0  0  0  0
   -3.1678  -10.2812   17.4668 N   0  0  0  0  0  0  0  0  0  0  0  0
   -4.5277  -12.1393   18.3156 H   0  0  0  0  0  0  0  0  0  0  0  0
   -3.8888  -12.6610   19.9155 H   0  0  0  0  0  0  0  0  0  0  0  0
   -3.6502  -11.2301   19.4013 H   0  0  0  0  0  0  0  0  0  0  0  0
   -1.9617  -12.7715   17.1468 H   0  0  0  0  0  0  0  0  0  0  0  0
   -3.1783  -14.4856   16.7735 H   0  0  0  0  0  0  0  0  0  0  0  0
   -4.2513  -16.8405   16.6424 H   0  0  0  0  0  0  0  0  0  0  0  0
   -2.9995  -18.1422   16.8266 H   0  0  0  0  0  0  0  0  0  0  0  0
   -7.8698  -20.5060   17.8525 H   0  0  0  0  0  0  0  0  0  0  0  0
   -6.4807  -21.5218   17.9310 H   0  0  0  0  0  0  0  0  0  0  0  0
  -10.4222  -21.6183   13.8760 H   0  0  0  0  0  0  0  0  0  0  0  0
   -9.9022  -21.7360   15.5916 H   0  0  0  0  0  0  0  0  0  0  0  0
  -10.7011  -24.2372   15.4901 H   0  0  0  0  0  0  0  0  0  0  0  0
   -9.2414  -24.3009   14.9936 H   0  0  0  0  0  0  0  0  0  0  0  0
  -10.9378  -25.3530   13.4914 H   0  0  0  0  0  0  0  0  0  0  0  0
  -11.4797  -23.7187   13.0469 H   0  0  0  0  0  0  0  0  0  0  0  0
   -8.7358  -24.9870   12.7862 H   0  0  0  0  0  0  0  0  0  0  0  0
   -9.6592  -24.1305   11.6006 H   0  0  0  0  0  0  0  0  0  0  0  0
   -9.1689  -22.0328   12.4372 H   0  0  0  0  0  0  0  0  0  0  0  0
   -7.6955  -22.8145   12.6685 H   0  0  0  0  0  0  0  0  0  0  0  0
   -0.9688   -8.3858   18.8223 H   0  0  0  0  0  0  0  0  0  0  0  0
   -3.3968   -8.1941   17.3811 H   0  0  0  0  0  0  0  0  0  0  0  0
   -4.0661  -10.5221   17.0981 H   0  0  0  0  0  0  0  0  0  0  0  0
  1  2  1  0
  2  3  1  0
  3  4  1  0
  4  5  2  0
  4  6  1  0
  6  7  1  0
  7  8  1  0
  8  9  1  0
  9 10  2  0
  9 11  1  0
 11 12  1  0
 12 13  1  0
 13 14  1  0
 14 15  1  0
 15 16  1  0
  2 17  1  0
 17 18  2  0
 18 19  1  0
 19 20  2  0
 20 21  1  0
 16 11  1  0
 21 17  1  0
  1 22  1  0
  1 23  1  0
  1 24  1  0
  2 25  1  0
  3 26  1  0
  6 27  1  0
  6 28  1  0
  8 29  1  0
  8 30  1  0
 12 31  1  0
 12 32  1  0
 13 33  1  0
 13 34  1  0
 14 35  1  0
 14 36  1  0
 15 37  1  0
 15 38  1  0
 16 39  1  0
 16 40  1  0
 19 41  1  0
 20 42  1  0
 21 43  1  0
M  END
>  <Energy>  (1330) 
903.66097799462739

>  <compound_id>  (1330) 
17807

>  <target_id>  (1330) 
1

>  <reference_id>  (1330) 
9

>  <inspiration_ids>  (1330) 
[63, 9]

>  <energy_score>  (1330) 
844.7592425466702

>  <distance_score>  (1330) 
11.166515602165303

>  <path>  (1330) 
/opt/xchem-fragalysis-2/maxwin/BulkDock/SCRATCH/511014/C17807-P9/C17807-P9.minimised.mol

>  <scratch_subdir>  (1330) 
/opt/xchem-fragalysis-2/maxwin/BulkDock/SCRATCH/511014/C17807-P9

>  <fragmenstein_runtime>  (1330) 
32.44765257835388

>  <fragmenstein_outcome>  (1330) 
too moved

>  <fragmenstein_mode>  (1330) 
expansion

>  <fragmenstein_error>  (1330) 


$$$$
C17808-P63
     RDKit          3D

 55 56  0  0  0  0  0  0  0  0999 V2000
   -2.4716  -14.2658   17.2848 C   0  0  0  0  0  0  0  0  0  0  0  0
   -3.8454  -13.9656   16.6127 N   0  0  0  0  0  0  0  0  0  0  0  0
   -4.1714  -15.9236   16.9687 C   0  0  0  0  0  0  0  0  0  0  0  0
   -5.5120  -17.4535   16.8311 C   0  0  0  0  0  0  0  0  0  0  0  0
   -5.9826  -19.3400   17.3185 C   0  0  0  0  0  0  0  0  0  0  0  0
   -7.0095  -21.0487   16.9388 C   0  0  0  0  0  0  0  0  0  0  0  0
   -7.6173  -22.3050   15.3693 N   0  0  0  0  0  0  0  0  0  0  0  0
   -7.6301  -21.9985   13.7389 C   0  0  0  0  0  0  0  0  0  0  0  0
   -8.2808  -22.6272   12.3890 C   0  0  0  0  0  0  0  0  0  0  0  0
   -9.6763  -23.1793   12.6428 C   0  0  0  0  0  0  0  0  0  0  0  0
   -9.7037  -23.8172   14.0054 C   0  0  0  0  0  0  0  0  0  0  0  0
   -9.0289  -22.9962   15.2377 C   0  0  0  0  0  0  0  0  0  0  0  0
   -5.3681  -12.9172   17.2403 C   0  0  0  0  0  0  0  0  0  0  0  0
   -5.5451  -12.3778   18.3757 O   0  0  0  0  0  0  0  0  0  0  0  0
   -6.5348  -12.5104   16.2868 C   0  0  0  0  0  0  0  0  0  0  0  0
   -6.8656  -11.1448   16.3572 C   0  0  0  0  0  0  0  0  0  0  0  0
   -7.4075  -10.8209   15.1561 N   0  0  0  0  0  0  0  0  0  0  0  0
   -7.5716  -11.9921   14.4631 C   0  0  0  0  0  0  0  0  0  0  0  0
   -8.1947  -12.0491   13.0841 C   0  0  0  0  0  0  0  0  0  0  0  0
   -7.3767  -11.1922   12.1018 C   0  0  0  0  0  0  0  0  0  0  0  0
   -9.6431  -11.5336   13.1393 C   0  0  0  0  0  0  0  0  0  0  0  0
   -8.2104  -13.5006   12.5670 C   0  0  0  0  0  0  0  0  0  0  0  0
   -7.1321  -13.0198   15.1712 N   0  0  0  0  0  0  0  0  0  0  0  0
   -2.1156  -13.3207   17.7195 H   0  0  0  0  0  0  0  0  0  0  0  0
   -2.0691  -15.1196   17.8443 H   0  0  0  0  0  0  0  0  0  0  0  0
   -1.8927  -14.3643   16.3689 H   0  0  0  0  0  0  0  0  0  0  0  0
   -3.7391  -16.2166   16.0111 H   0  0  0  0  0  0  0  0  0  0  0  0
   -3.6560  -16.3969   17.8099 H   0  0  0  0  0  0  0  0  0  0  0  0
   -5.5609  -17.3753   17.9187 H   0  0  0  0  0  0  0  0  0  0  0  0
   -6.4178  -17.0173   16.3952 H   0  0  0  0  0  0  0  0  0  0  0  0
   -5.1255  -19.6678   17.9165 H   0  0  0  0  0  0  0  0  0  0  0  0
   -6.7037  -19.0376   18.1041 H   0  0  0  0  0  0  0  0  0  0  0  0
   -7.9343  -20.8486   17.5466 H   0  0  0  0  0  0  0  0  0  0  0  0
   -6.3913  -21.6940   17.6211 H   0  0  0  0  0  0  0  0  0  0  0  0
   -6.9299  -21.2175   13.4372 H   0  0  0  0  0  0  0  0  0  0  0  0
   -8.6588  -21.8182   13.9016 H   0  0  0  0  0  0  0  0  0  0  0  0
   -7.6452  -23.3763   11.9065 H   0  0  0  0  0  0  0  0  0  0  0  0
   -8.4472  -21.8071   11.6823 H   0  0  0  0  0  0  0  0  0  0  0  0
  -10.4101  -22.3653   12.6082 H   0  0  0  0  0  0  0  0  0  0  0  0
   -9.9592  -23.8905   11.8593 H   0  0  0  0  0  0  0  0  0  0  0  0
  -10.7270  -24.0984   14.2218 H   0  0  0  0  0  0  0  0  0  0  0  0
   -9.2511  -24.8113   13.9163 H   0  0  0  0  0  0  0  0  0  0  0  0
   -8.7121  -23.8593   15.7150 H   0  0  0  0  0  0  0  0  0  0  0  0
   -9.6923  -22.2727   15.6512 H   0  0  0  0  0  0  0  0  0  0  0  0
   -6.5880  -10.3891   17.0800 H   0  0  0  0  0  0  0  0  0  0  0  0
   -7.6776   -9.8991   14.8420 H   0  0  0  0  0  0  0  0  0  0  0  0
   -6.3321  -11.5234   12.0612 H   0  0  0  0  0  0  0  0  0  0  0  0
   -7.7871  -11.2529   11.0874 H   0  0  0  0  0  0  0  0  0  0  0  0
   -7.3736  -10.1350   12.3914 H   0  0  0  0  0  0  0  0  0  0  0  0
  -10.2455  -12.1172   13.8456 H   0  0  0  0  0  0  0  0  0  0  0  0
  -10.1239  -11.5984   12.1565 H   0  0  0  0  0  0  0  0  0  0  0  0
   -9.6882  -10.4858   13.4583 H   0  0  0  0  0  0  0  0  0  0  0  0
   -8.7805  -14.1576   13.2344 H   0  0  0  0  0  0  0  0  0  0  0  0
   -8.6667  -13.5622   11.5723 H   0  0  0  0  0  0  0  0  0  0  0  0
   -7.1957  -13.9084   12.4904 H   0  0  0  0  0  0  0  0  0  0  0  0
  1  2  1  0
  2  3  1  0
  3  4  1  0
  4  5  1  0
  5  6  1  0
  6  7  1  0
  7  8  1  0
  8  9  1  0
  9 10  1  0
 10 11  1  0
 11 12  1  0
  2 13  1  0
 13 14  2  0
 13 15  1  0
 15 16  2  0
 16 17  1  0
 17 18  1  0
 18 19  1  0
 19 20  1  0
 19 21  1  0
 19 22  1  0
 18 23  2  0
 12  7  1  0
 23 15  1  0
  1 24  1  0
  1 25  1  0
  1 26  1  0
  3 27  1  0
  3 28  1  0
  4 29  1  0
  4 30  1  0
  5 31  1  0
  5 32  1  0
  6 33  1  0
  6 34  1  0
  8 35  1  0
  8 36  1  0
  9 37  1  0
  9 38  1  0
 10 39  1  0
 10 40  1  0
 11 41  1  0
 11 42  1  0
 12 43  1  0
 12 44  1  0
 16 45  1  0
 17 46  1  0
 20 47  1  0
 20 48  1  0
 20 49  1  0
 21 50  1  0
 21 51  1  0
 21 52  1  0
 22 53  1  0
 22 54  1  0
 22 55  1  0
M  END
>  <Energy>  (1331) 
869.285770514766

>  <compound_id>  (1331) 
17808

>  <target_id>  (1331) 
1

>  <reference_id>  (1331) 
63

>  <inspiration_ids>  (1331) 
[63, 9]

>  <energy_score>  (1331) 
783.8993122029179

>  <distance_score>  (1331) 
14.35191460423335

>  <path>  (1331) 
/opt/xchem-fragalysis-2/maxwin/BulkDock/SCRATCH/511014/C17808-P63/C17808-P63.minimised.mol

>  <scratch_subdir>  (1331) 
/opt/xchem-fragalysis-2/maxwin/BulkDock/SCRATCH/511014/C17808-P63

>  <fragmenstein_runtime>  (1331) 
22.221604347229004

>  <fragmenstein_outcome>  (1331) 
too moved

>  <fragmenstein_mode>  (1331) 
expansion

>  <fragmenstein_error>  (1331) 


$$$$
C17808-P9
     RDKit          3D

 55 56  0  0  0  0  0  0  0  0999 V2000
    1.0630  -16.4100   18.2109 C   0  0  0  0  0  0  0  0  0  0  0  0
    1.8136  -15.3706   17.8100 N   0  0  0  0  0  0  0  0  0  0  0  0
   -0.0609  -14.6404   17.6084 C   0  0  0  0  0  0  0  0  0  0  0  0
   -2.0628  -14.9446   17.9230 C   0  0  0  0  0  0  0  0  0  0  0  0
   -3.3220  -16.4867   17.3150 C   0  0  0  0  0  0  0  0  0  0  0  0
   -4.6642  -17.4049   18.2161 C   0  0  0  0  0  0  0  0  0  0  0  0
   -5.8989  -18.0420   19.0323 N   0  0  0  0  0  0  0  0  0  0  0  0
   -7.3341  -18.1297   18.6114 C   0  0  0  0  0  0  0  0  0  0  0  0
   -8.2535  -18.3429   19.8194 C   0  0  0  0  0  0  0  0  0  0  0  0
   -7.7205  -19.4413   20.7301 C   0  0  0  0  0  0  0  0  0  0  0  0
   -6.6774  -20.2554   19.9921 C   0  0  0  0  0  0  0  0  0  0  0  0
   -5.5501  -19.4092   19.4192 C   0  0  0  0  0  0  0  0  0  0  0  0
    2.8262  -14.4398   18.5948 C   0  0  0  0  0  0  0  0  0  0  0  0
    2.9015  -14.5832   19.7453 O   0  0  0  0  0  0  0  0  0  0  0  0
    4.0337  -13.3003   18.0853 C   0  0  0  0  0  0  0  0  0  0  0  0
    5.3135  -13.4037   18.6855 C   0  0  0  0  0  0  0  0  0  0  0  0
    6.1295  -12.3655   18.2854 N   0  0  0  0  0  0  0  0  0  0  0  0
    5.4692  -11.6332   17.3269 C   0  0  0  0  0  0  0  0  0  0  0  0
    6.0851  -10.4914   16.5460 C   0  0  0  0  0  0  0  0  0  0  0  0
    5.6890   -9.1389   17.1598 C   0  0  0  0  0  0  0  0  0  0  0  0
    5.5923  -10.5193   15.0873 C   0  0  0  0  0  0  0  0  0  0  0  0
    7.6210  -10.6145   16.5413 C   0  0  0  0  0  0  0  0  0  0  0  0
    4.1995  -12.0594   17.3118 N   0  0  0  0  0  0  0  0  0  0  0  0
    0.1502  -16.7777   17.8829 H   0  0  0  0  0  0  0  0  0  0  0  0
    1.7857  -17.2030   18.0012 H   0  0  0  0  0  0  0  0  0  0  0  0
    1.1720  -16.3825   19.3051 H   0  0  0  0  0  0  0  0  0  0  0  0
   -0.3733  -15.2286   18.4528 H   0  0  0  0  0  0  0  0  0  0  0  0
    0.0404  -13.5799   17.5430 H   0  0  0  0  0  0  0  0  0  0  0  0
   -2.4746  -13.9976   17.5438 H   0  0  0  0  0  0  0  0  0  0  0  0
   -2.0287  -15.1162   19.0094 H   0  0  0  0  0  0  0  0  0  0  0  0
   -3.7702  -16.1627   16.3672 H   0  0  0  0  0  0  0  0  0  0  0  0
   -2.8582  -17.4479   17.2018 H   0  0  0  0  0  0  0  0  0  0  0  0
   -5.2630  -16.6579   17.7325 H   0  0  0  0  0  0  0  0  0  0  0  0
   -4.2467  -17.0982   19.1484 H   0  0  0  0  0  0  0  0  0  0  0  0
   -7.7542  -17.3149   18.0180 H   0  0  0  0  0  0  0  0  0  0  0  0
   -7.4643  -19.0092   17.9867 H   0  0  0  0  0  0  0  0  0  0  0  0
   -9.2530  -18.6164   19.4607 H   0  0  0  0  0  0  0  0  0  0  0  0
   -8.3652  -17.4139   20.3901 H   0  0  0  0  0  0  0  0  0  0  0  0
   -7.2666  -18.9902   21.6210 H   0  0  0  0  0  0  0  0  0  0  0  0
   -8.5399  -20.0793   21.0787 H   0  0  0  0  0  0  0  0  0  0  0  0
   -7.1575  -20.7244   19.1311 H   0  0  0  0  0  0  0  0  0  0  0  0
   -6.2592  -21.0293   20.6443 H   0  0  0  0  0  0  0  0  0  0  0  0
   -4.7837  -19.3717   20.1782 H   0  0  0  0  0  0  0  0  0  0  0  0
   -5.1957  -19.9386   18.5325 H   0  0  0  0  0  0  0  0  0  0  0  0
    5.6950  -14.1088   19.4010 H   0  0  0  0  0  0  0  0  0  0  0  0
    7.0610  -12.1899   18.6270 H   0  0  0  0  0  0  0  0  0  0  0  0
    6.0498   -9.0446   18.1905 H   0  0  0  0  0  0  0  0  0  0  0  0
    6.1063   -8.3049   16.5850 H   0  0  0  0  0  0  0  0  0  0  0  0
    4.6009   -9.0071   17.1721 H   0  0  0  0  0  0  0  0  0  0  0  0
    4.4987  -10.5016   15.0300 H   0  0  0  0  0  0  0  0  0  0  0  0
    5.9637   -9.6537   14.5270 H   0  0  0  0  0  0  0  0  0  0  0  0
    5.9368  -11.4152   14.5611 H   0  0  0  0  0  0  0  0  0  0  0  0
    7.9454  -11.5798   16.1350 H   0  0  0  0  0  0  0  0  0  0  0  0
    8.0803   -9.8336   15.9359 H   0  0  0  0  0  0  0  0  0  0  0  0
    8.0394  -10.5188   17.5500 H   0  0  0  0  0  0  0  0  0  0  0  0
  1  2  1  0
  2  3  1  0
  3  4  1  0
  4  5  1  0
  5  6  1  0
  6  7  1  0
  7  8  1  0
  8  9  1  0
  9 10  1  0
 10 11  1  0
 11 12  1  0
  2 13  1  0
 13 14  2  0
 13 15  1  0
 15 16  2  0
 16 17  1  0
 17 18  1  0
 18 19  1  0
 19 20  1  0
 19 21  1  0
 19 22  1  0
 18 23  2  0
 12  7  1  0
 23 15  1  0
  1 24  1  0
  1 25  1  0
  1 26  1  0
  3 27  1  0
  3 28  1  0
  4 29  1  0
  4 30  1  0
  5 31  1  0
  5 32  1  0
  6 33  1  0
  6 34  1  0
  8 35  1  0
  8 36  1  0
  9 37  1  0
  9 38  1  0
 10 39  1  0
 10 40  1  0
 11 41  1  0
 11 42  1  0
 12 43  1  0
 12 44  1  0
 16 45  1  0
 17 46  1  0
 20 47  1  0
 20 48  1  0
 20 49  1  0
 21 50  1  0
 21 51  1  0
 21 52  1  0
 22 53  1  0
 22 54  1  0
 22 55  1  0
M  END
>  <Energy>  (1332) 
642.54983534693713

>  <compound_id>  (1332) 
17808

>  <target_id>  (1332) 
1

>  <reference_id>  (1332) 
9

>  <inspiration_ids>  (1332) 
[63, 9]

>  <energy_score>  (1332) 
557.1633770350812

>  <distance_score>  (1332) 
12.917216898848132

>  <path>  (1332) 
/opt/xchem-fragalysis-2/maxwin/BulkDock/SCRATCH/511014/C17808-P9/C17808-P9.minimised.mol

>  <scratch_subdir>  (1332) 
/opt/xchem-fragalysis-2/maxwin/BulkDock/SCRATCH/511014/C17808-P9

>  <fragmenstein_runtime>  (1332) 
26.23647379875183

>  <fragmenstein_outcome>  (1332) 
too moved

>  <fragmenstein_mode>  (1332) 
expansion

>  <fragmenstein_error>  (1332) 


$$$$
C17809-P63
     RDKit          3D

 49 50  0  0  0  0  0  0  0  0999 V2000
    1.6562  -18.2689   11.0100 C   0  0  0  0  0  0  0  0  0  0  0  0
    2.8025  -18.9820   11.7096 C   0  0  0  0  0  0  0  0  0  0  0  0
    2.3687  -19.9763   12.6679 N   0  0  0  0  0  0  0  0  0  0  0  0
    2.7858  -20.0865   13.9618 C   0  0  0  0  0  0  0  0  0  0  0  0
    2.3148  -21.1847   14.5206 N   0  0  0  0  0  0  0  0  0  0  0  0
    1.5057  -21.8303   13.5501 C   0  0  0  0  0  0  0  0  0  0  0  0
    0.9287  -23.2458   13.7104 C   0  0  0  0  0  0  0  0  0  0  0  0
    1.5936  -24.1366   13.2444 O   0  0  0  0  0  0  0  0  0  0  0  0
   -0.2937  -23.2941   14.4921 N   0  0  0  0  0  0  0  0  0  0  0  0
    0.0330  -23.3423   15.9563 C   0  0  0  0  0  0  0  0  0  0  0  0
   -1.2251  -24.5259   14.8940 C   0  0  0  0  0  0  0  0  0  0  0  0
   -2.1598  -25.2137   13.8010 C   0  0  0  0  0  0  0  0  0  0  0  0
   -2.9302  -26.4269   14.4415 C   0  0  0  0  0  0  0  0  0  0  0  0
   -3.7712  -27.4201   13.5862 C   0  0  0  0  0  0  0  0  0  0  0  0
   -5.0167  -26.9861   12.9366 N   0  0  0  0  0  0  0  0  0  0  0  0
   -6.0500  -28.0432   12.9462 C   0  0  0  0  0  0  0  0  0  0  0  0
   -7.0198  -28.0432   11.7534 C   0  0  0  0  0  0  0  0  0  0  0  0
   -7.3539  -26.6487   11.2532 C   0  0  0  0  0  0  0  0  0  0  0  0
   -6.0927  -25.8113   11.0346 C   0  0  0  0  0  0  0  0  0  0  0  0
   -4.8095  -26.4358   11.6015 C   0  0  0  0  0  0  0  0  0  0  0  0
    1.5826  -21.0697   12.3885 C   0  0  0  0  0  0  0  0  0  0  0  0
    1.0473  -18.9660   10.4254 H   0  0  0  0  0  0  0  0  0  0  0  0
    2.0452  -17.5099   10.3243 H   0  0  0  0  0  0  0  0  0  0  0  0
    0.9972  -17.7752   11.7290 H   0  0  0  0  0  0  0  0  0  0  0  0
    3.4367  -18.2585   12.2322 H   0  0  0  0  0  0  0  0  0  0  0  0
    3.4287  -19.5018   10.9757 H   0  0  0  0  0  0  0  0  0  0  0  0
    3.4315  -19.3639   14.4405 H   0  0  0  0  0  0  0  0  0  0  0  0
    0.6041  -24.2282   16.2711 H   0  0  0  0  0  0  0  0  0  0  0  0
   -0.7994  -23.0749   16.6220 H   0  0  0  0  0  0  0  0  0  0  0  0
    0.7467  -22.5262   16.1336 H   0  0  0  0  0  0  0  0  0  0  0  0
   -0.5850  -25.3602   15.2219 H   0  0  0  0  0  0  0  0  0  0  0  0
   -1.9547  -24.2232   15.6609 H   0  0  0  0  0  0  0  0  0  0  0  0
   -2.8418  -24.4690   13.3847 H   0  0  0  0  0  0  0  0  0  0  0  0
   -1.5299  -25.5741   12.9799 H   0  0  0  0  0  0  0  0  0  0  0  0
   -2.1538  -27.0516   14.9085 H   0  0  0  0  0  0  0  0  0  0  0  0
   -3.5269  -26.0830   15.2898 H   0  0  0  0  0  0  0  0  0  0  0  0
   -4.0209  -28.2212   14.2971 H   0  0  0  0  0  0  0  0  0  0  0  0
   -3.1099  -27.8947   12.8488 H   0  0  0  0  0  0  0  0  0  0  0  0
   -5.5902  -29.0402   12.9724 H   0  0  0  0  0  0  0  0  0  0  0  0
   -6.6235  -27.9418   13.8754 H   0  0  0  0  0  0  0  0  0  0  0  0
   -7.9384  -28.5767   12.0232 H   0  0  0  0  0  0  0  0  0  0  0  0
   -6.5637  -28.6074   10.9291 H   0  0  0  0  0  0  0  0  0  0  0  0
   -7.9217  -26.7138   10.3175 H   0  0  0  0  0  0  0  0  0  0  0  0
   -8.0180  -26.1493   11.9669 H   0  0  0  0  0  0  0  0  0  0  0  0
   -6.2428  -24.8161   11.4685 H   0  0  0  0  0  0  0  0  0  0  0  0
   -5.9494  -25.6503    9.9590 H   0  0  0  0  0  0  0  0  0  0  0  0
   -4.0399  -25.6562   11.6206 H   0  0  0  0  0  0  0  0  0  0  0  0
   -4.4475  -27.2149   10.9174 H   0  0  0  0  0  0  0  0  0  0  0  0
    1.1828  -21.2573   11.4028 H   0  0  0  0  0  0  0  0  0  0  0  0
  1  2  1  0
  2  3  1  0
  3  4  1  0
  4  5  2  0
  5  6  1  0
  6  7  1  0
  7  8  2  0
  7  9  1  0
  9 10  1  0
  9 11  1  0
 11 12  1  0
 12 13  1  0
 13 14  1  0
 14 15  1  0
 15 16  1  0
 16 17  1  0
 17 18  1  0
 18 19  1  0
 19 20  1  0
  6 21  2  0
 21  3  1  0
 20 15  1  0
  1 22  1  0
  1 23  1  0
  1 24  1  0
  2 25  1  0
  2 26  1  0
  4 27  1  0
 10 28  1  0
 10 29  1  0
 10 30  1  0
 11 31  1  0
 11 32  1  0
 12 33  1  0
 12 34  1  0
 13 35  1  0
 13 36  1  0
 14 37  1  0
 14 38  1  0
 16 39  1  0
 16 40  1  0
 17 41  1  0
 17 42  1  0
 18 43  1  0
 18 44  1  0
 19 45  1  0
 19 46  1  0
 20 47  1  0
 20 48  1  0
 21 49  1  0
M  END
>  <Energy>  (1333) 
129.93307532699981

>  <compound_id>  (1333) 
17809

>  <target_id>  (1333) 
1

>  <reference_id>  (1333) 
63

>  <inspiration_ids>  (1333) 
[63, 9]

>  <energy_score>  (1333) 
51.50683258669034

>  <distance_score>  (1333) 
15.092168082345223

>  <path>  (1333) 
/opt/xchem-fragalysis-2/maxwin/BulkDock/SCRATCH/511014/C17809-P63/C17809-P63.minimised.mol

>  <scratch_subdir>  (1333) 
/opt/xchem-fragalysis-2/maxwin/BulkDock/SCRATCH/511014/C17809-P63

>  <fragmenstein_runtime>  (1333) 
37.00921964645386

>  <fragmenstein_outcome>  (1333) 
too moved

>  <fragmenstein_mode>  (1333) 
expansion

>  <fragmenstein_error>  (1333) 


$$$$
C17809-P9
     RDKit          3D

 49 50  0  0  0  0  0  0  0  0999 V2000
    2.6117  -16.9483    9.2364 C   0  0  0  0  0  0  0  0  0  0  0  0
    2.8962  -18.0811   10.2058 C   0  0  0  0  0  0  0  0  0  0  0  0
    1.7157  -18.7757   10.6728 N   0  0  0  0  0  0  0  0  0  0  0  0
    1.5525  -19.3036   11.9185 C   0  0  0  0  0  0  0  0  0  0  0  0
    0.4199  -19.9728   12.0160 N   0  0  0  0  0  0  0  0  0  0  0  0
   -0.1622  -19.9775   10.7476 C   0  0  0  0  0  0  0  0  0  0  0  0
   -1.5525  -20.5076   10.3760 C   0  0  0  0  0  0  0  0  0  0  0  0
   -2.1673  -19.7662    9.6504 O   0  0  0  0  0  0  0  0  0  0  0  0
   -1.9588  -21.7522   11.0167 N   0  0  0  0  0  0  0  0  0  0  0  0
   -2.5272  -21.4732   12.3604 C   0  0  0  0  0  0  0  0  0  0  0  0
   -3.2946  -22.5970   10.8772 C   0  0  0  0  0  0  0  0  0  0  0  0
   -3.5777  -24.0673   11.4352 C   0  0  0  0  0  0  0  0  0  0  0  0
   -5.0598  -24.5453   11.1500 C   0  0  0  0  0  0  0  0  0  0  0  0
   -5.4000  -25.9681   11.6744 C   0  0  0  0  0  0  0  0  0  0  0  0
   -6.7176  -26.5608   11.3199 N   0  0  0  0  0  0  0  0  0  0  0  0
   -7.8231  -25.6089   11.2484 C   0  0  0  0  0  0  0  0  0  0  0  0
   -9.1979  -26.2321   10.9968 C   0  0  0  0  0  0  0  0  0  0  0  0
   -9.4840  -27.3540   11.9780 C   0  0  0  0  0  0  0  0  0  0  0  0
   -8.3618  -28.3773   11.8959 C   0  0  0  0  0  0  0  0  0  0  0  0
   -6.9989  -27.7359   12.1617 C   0  0  0  0  0  0  0  0  0  0  0  0
    0.6299  -19.1620    9.9322 C   0  0  0  0  0  0  0  0  0  0  0  0
    2.2075  -17.3215    8.2900 H   0  0  0  0  0  0  0  0  0  0  0  0
    1.8848  -16.2528    9.6607 H   0  0  0  0  0  0  0  0  0  0  0  0
    3.5311  -16.3992    9.0115 H   0  0  0  0  0  0  0  0  0  0  0  0
    3.4249  -17.6909   11.0818 H   0  0  0  0  0  0  0  0  0  0  0  0
    3.5387  -18.8326    9.7334 H   0  0  0  0  0  0  0  0  0  0  0  0
    2.2769  -19.1864   12.7147 H   0  0  0  0  0  0  0  0  0  0  0  0
   -3.4493  -20.8746   12.3683 H   0  0  0  0  0  0  0  0  0  0  0  0
   -2.4954  -22.3430   13.0217 H   0  0  0  0  0  0  0  0  0  0  0  0
   -1.8210  -20.7922   12.8549 H   0  0  0  0  0  0  0  0  0  0  0  0
   -3.2705  -22.7650    9.7871 H   0  0  0  0  0  0  0  0  0  0  0  0
   -4.1940  -21.9592   10.9416 H   0  0  0  0  0  0  0  0  0  0  0  0
   -2.8859  -24.7531   10.9303 H   0  0  0  0  0  0  0  0  0  0  0  0
   -3.3588  -24.1587   12.5005 H   0  0  0  0  0  0  0  0  0  0  0  0
   -5.2131  -24.5211   10.0640 H   0  0  0  0  0  0  0  0  0  0  0  0
   -5.7501  -23.8186   11.5896 H   0  0  0  0  0  0  0  0  0  0  0  0
   -4.6331  -26.6502   11.2850 H   0  0  0  0  0  0  0  0  0  0  0  0
   -5.2661  -25.9646   12.7564 H   0  0  0  0  0  0  0  0  0  0  0  0
   -7.8819  -24.9998   12.1514 H   0  0  0  0  0  0  0  0  0  0  0  0
   -7.6287  -24.9401   10.4075 H   0  0  0  0  0  0  0  0  0  0  0  0
   -9.9726  -25.4611   11.0762 H   0  0  0  0  0  0  0  0  0  0  0  0
   -9.2398  -26.6214    9.9715 H   0  0  0  0  0  0  0  0  0  0  0  0
  -10.4430  -27.8271   11.7408 H   0  0  0  0  0  0  0  0  0  0  0  0
   -9.5576  -26.9557   12.9970 H   0  0  0  0  0  0  0  0  0  0  0  0
   -8.3596  -28.8429   10.9022 H   0  0  0  0  0  0  0  0  0  0  0  0
   -8.5384  -29.1788   12.6222 H   0  0  0  0  0  0  0  0  0  0  0  0
   -6.9450  -27.4860   13.2255 H   0  0  0  0  0  0  0  0  0  0  0  0
   -6.2266  -28.4943   11.9825 H   0  0  0  0  0  0  0  0  0  0  0  0
    0.4859  -18.8634    8.9037 H   0  0  0  0  0  0  0  0  0  0  0  0
  1  2  1  0
  2  3  1  0
  3  4  1  0
  4  5  2  0
  5  6  1  0
  6  7  1  0
  7  8  2  0
  7  9  1  0
  9 10  1  0
  9 11  1  0
 11 12  1  0
 12 13  1  0
 13 14  1  0
 14 15  1  0
 15 16  1  0
 16 17  1  0
 17 18  1  0
 18 19  1  0
 19 20  1  0
  6 21  2  0
 21  3  1  0
 20 15  1  0
  1 22  1  0
  1 23  1  0
  1 24  1  0
  2 25  1  0
  2 26  1  0
  4 27  1  0
 10 28  1  0
 10 29  1  0
 10 30  1  0
 11 31  1  0
 11 32  1  0
 12 33  1  0
 12 34  1  0
 13 35  1  0
 13 36  1  0
 14 37  1  0
 14 38  1  0
 16 39  1  0
 16 40  1  0
 17 41  1  0
 17 42  1  0
 18 43  1  0
 18 44  1  0
 19 45  1  0
 19 46  1  0
 20 47  1  0
 20 48  1  0
 21 49  1  0
M  END
>  <Energy>  (1334) 
119.73778424155125

>  <compound_id>  (1334) 
17809

>  <target_id>  (1334) 
1

>  <reference_id>  (1334) 
9

>  <inspiration_ids>  (1334) 
[63, 9]

>  <energy_score>  (1334) 
41.31154150124547

>  <distance_score>  (1334) 
14.768229802985855

>  <path>  (1334) 
/opt/xchem-fragalysis-2/maxwin/BulkDock/SCRATCH/511014/C17809-P9/C17809-P9.minimised.mol

>  <scratch_subdir>  (1334) 
/opt/xchem-fragalysis-2/maxwin/BulkDock/SCRATCH/511014/C17809-P9

>  <fragmenstein_runtime>  (1334) 
28.261358976364136

>  <fragmenstein_outcome>  (1334) 
too moved

>  <fragmenstein_mode>  (1334) 
expansion

>  <fragmenstein_error>  (1334) 


$$$$
C17812-P63
     RDKit          3D

 41 42  0  0  0  0  0  0  0  0999 V2000
    0.6172  -13.4457   10.9724 O   0  0  0  0  0  0  0  0  0  0  0  0
    1.4560  -14.3032   10.8859 C   0  0  0  0  0  0  0  0  0  0  0  0
    1.3272  -15.7461   10.6289 N   0  0  0  0  0  0  0  0  0  0  0  0
    0.1202  -16.5846   10.2956 C   0  0  0  0  0  0  0  0  0  0  0  0
    0.0402  -18.0727   10.8619 C   0  0  0  0  0  0  0  0  0  0  0  0
   -1.0919  -18.9988   10.5930 N   0  0  0  0  0  0  0  0  0  0  0  0
   -1.3513  -19.9843   11.6527 C   0  0  0  0  0  0  0  0  0  0  0  0
   -2.0808  -21.2271   11.1176 C   0  0  0  0  0  0  0  0  0  0  0  0
   -3.0644  -20.9084    9.9970 C   0  0  0  0  0  0  0  0  0  0  0  0
   -3.5166  -19.4583   10.0866 C   0  0  0  0  0  0  0  0  0  0  0  0
   -2.3075  -18.5048    9.9520 C   0  0  0  0  0  0  0  0  0  0  0  0
    3.0013  -13.7940   10.9613 C   0  0  0  0  0  0  0  0  0  0  0  0
    3.5192  -13.8000    9.6240 O   0  0  0  0  0  0  0  0  0  0  0  0
    3.1305  -12.3399   11.5927 C   0  0  0  0  0  0  0  0  0  0  0  0
    4.4860  -11.6909   11.8629 C   0  0  0  0  0  0  0  0  0  0  0  0
    5.2012  -10.8159   11.0606 C   0  0  0  0  0  0  0  0  0  0  0  0
    6.2061  -10.3050   11.8421 N   0  0  0  0  0  0  0  0  0  0  0  0
    6.0849  -10.8724   13.0771 C   0  0  0  0  0  0  0  0  0  0  0  0
    5.0709  -11.7137   13.1233 N   0  0  0  0  0  0  0  0  0  0  0  0
    2.2529  -16.1513   10.5401 H   0  0  0  0  0  0  0  0  0  0  0  0
    0.0938  -16.6300    9.2011 H   0  0  0  0  0  0  0  0  0  0  0  0
   -0.7519  -16.0087   10.6160 H   0  0  0  0  0  0  0  0  0  0  0  0
    0.2474  -18.0202   11.9290 H   0  0  0  0  0  0  0  0  0  0  0  0
    0.9277  -18.5802   10.4590 H   0  0  0  0  0  0  0  0  0  0  0  0
   -0.4103  -20.3188   12.1064 H   0  0  0  0  0  0  0  0  0  0  0  0
   -1.9397  -19.5254   12.4539 H   0  0  0  0  0  0  0  0  0  0  0  0
   -2.6027  -21.7090   11.9500 H   0  0  0  0  0  0  0  0  0  0  0  0
   -1.3504  -21.9562   10.7457 H   0  0  0  0  0  0  0  0  0  0  0  0
   -3.8992  -21.6088   10.0246 H   0  0  0  0  0  0  0  0  0  0  0  0
   -2.5713  -21.0665    9.0289 H   0  0  0  0  0  0  0  0  0  0  0  0
   -4.2437  -19.2387    9.2971 H   0  0  0  0  0  0  0  0  0  0  0  0
   -4.0171  -19.2831   11.0469 H   0  0  0  0  0  0  0  0  0  0  0  0
   -2.6076  -17.5231   10.3279 H   0  0  0  0  0  0  0  0  0  0  0  0
   -2.0900  -18.3715    8.8852 H   0  0  0  0  0  0  0  0  0  0  0  0
    3.5845  -14.5241   11.5237 H   0  0  0  0  0  0  0  0  0  0  0  0
    2.9536  -13.1926    9.1124 H   0  0  0  0  0  0  0  0  0  0  0  0
    2.5885  -11.6499   10.9304 H   0  0  0  0  0  0  0  0  0  0  0  0
    2.5764  -12.3357   12.5407 H   0  0  0  0  0  0  0  0  0  0  0  0
    5.0494  -10.4829   10.0436 H   0  0  0  0  0  0  0  0  0  0  0  0
    6.8978   -9.6216   11.5640 H   0  0  0  0  0  0  0  0  0  0  0  0
    6.7538  -10.6367   13.8946 H   0  0  0  0  0  0  0  0  0  0  0  0
  1  2  2  0
  2  3  1  0
  3  4  1  0
  4  5  1  0
  5  6  1  0
  6  7  1  0
  7  8  1  0
  8  9  1  0
  9 10  1  0
 10 11  1  0
  2 12  1  0
 12 13  1  0
 12 14  1  0
 14 15  1  0
 15 16  2  0
 16 17  1  0
 17 18  1  0
 18 19  2  0
 11  6  1  0
 19 15  1  0
  3 20  1  0
  4 21  1  0
  4 22  1  0
  5 23  1  0
  5 24  1  0
  7 25  1  0
  7 26  1  0
  8 27  1  0
  8 28  1  0
  9 29  1  0
  9 30  1  0
 10 31  1  0
 10 32  1  0
 11 33  1  0
 11 34  1  0
 12 35  1  0
 13 36  1  0
 14 37  1  0
 14 38  1  0
 16 39  1  0
 17 40  1  0
 18 41  1  0
M  END
>  <Energy>  (1335) 
68.923659682008619

>  <compound_id>  (1335) 
17812

>  <target_id>  (1335) 
1

>  <reference_id>  (1335) 
63

>  <inspiration_ids>  (1335) 
[63, 9]

>  <energy_score>  (1335) 
-3.37075110348718

>  <distance_score>  (1335) 
14.196311152707748

>  <path>  (1335) 
/opt/xchem-fragalysis-2/maxwin/BulkDock/SCRATCH/511014/C17812-P63/C17812-P63.minimised.mol

>  <scratch_subdir>  (1335) 
/opt/xchem-fragalysis-2/maxwin/BulkDock/SCRATCH/511014/C17812-P63

>  <fragmenstein_runtime>  (1335) 
21.46796488761902

>  <fragmenstein_outcome>  (1335) 
too moved

>  <fragmenstein_mode>  (1335) 
expansion

>  <fragmenstein_error>  (1335) 


$$$$
C17812-P9
     RDKit          3D

 41 42  0  0  0  0  0  0  0  0999 V2000
    3.6583  -15.2129   17.8363 O   0  0  0  0  0  0  0  0  0  0  0  0
    2.9170  -15.5191   16.9358 C   0  0  0  0  0  0  0  0  0  0  0  0
    2.7484  -16.7930   16.2409 N   0  0  0  0  0  0  0  0  0  0  0  0
    3.3521  -18.1228   16.4819 C   0  0  0  0  0  0  0  0  0  0  0  0
    2.8655  -19.3615   15.5498 C   0  0  0  0  0  0  0  0  0  0  0  0
    2.2104  -20.6230   16.0124 N   0  0  0  0  0  0  0  0  0  0  0  0
    2.3591  -21.0653   17.3790 C   0  0  0  0  0  0  0  0  0  0  0  0
    1.9835  -22.5416   17.6377 C   0  0  0  0  0  0  0  0  0  0  0  0
    0.9464  -23.1178   16.6889 C   0  0  0  0  0  0  0  0  0  0  0  0
    1.3494  -22.8980   15.2370 C   0  0  0  0  0  0  0  0  0  0  0  0
    2.2861  -21.6957   15.0125 C   0  0  0  0  0  0  0  0  0  0  0  0
    1.7315  -14.0431   16.4956 C   0  0  0  0  0  0  0  0  0  0  0  0
    0.4030  -13.9303   17.0491 O   0  0  0  0  0  0  0  0  0  0  0  0
    2.1117  -12.3705   15.2633 C   0  0  0  0  0  0  0  0  0  0  0  0
    3.5738  -11.4475   14.8015 C   0  0  0  0  0  0  0  0  0  0  0  0
    4.3700  -10.6205   15.5982 C   0  0  0  0  0  0  0  0  0  0  0  0
    5.3014  -10.0629   14.7616 N   0  0  0  0  0  0  0  0  0  0  0  0
    5.0279  -10.5233   13.5046 C   0  0  0  0  0  0  0  0  0  0  0  0
    4.0055  -11.3587   13.4923 N   0  0  0  0  0  0  0  0  0  0  0  0
    2.0014  -16.7188   15.6135 H   0  0  0  0  0  0  0  0  0  0  0  0
    4.4297  -17.9980   16.3631 H   0  0  0  0  0  0  0  0  0  0  0  0
    3.0834  -18.3716   17.4978 H   0  0  0  0  0  0  0  0  0  0  0  0
    2.2670  -18.9575   14.7270 H   0  0  0  0  0  0  0  0  0  0  0  0
    3.8073  -19.6825   15.0805 H   0  0  0  0  0  0  0  0  0  0  0  0
    1.7502  -20.4252   18.0258 H   0  0  0  0  0  0  0  0  0  0  0  0
    3.3993  -20.9428   17.6952 H   0  0  0  0  0  0  0  0  0  0  0  0
    1.6432  -22.6521   18.6741 H   0  0  0  0  0  0  0  0  0  0  0  0
    2.8963  -23.1463   17.5485 H   0  0  0  0  0  0  0  0  0  0  0  0
   -0.0210  -22.6677   16.8998 H   0  0  0  0  0  0  0  0  0  0  0  0
    0.8195  -24.1903   16.8777 H   0  0  0  0  0  0  0  0  0  0  0  0
    1.8720  -23.7952   14.8796 H   0  0  0  0  0  0  0  0  0  0  0  0
    0.4594  -22.8173   14.6064 H   0  0  0  0  0  0  0  0  0  0  0  0
    3.3198  -22.0663   14.9787 H   0  0  0  0  0  0  0  0  0  0  0  0
    2.0765  -21.2969   14.0116 H   0  0  0  0  0  0  0  0  0  0  0  0
    2.1665  -13.8190   17.5063 H   0  0  0  0  0  0  0  0  0  0  0  0
   -0.2058  -13.8791   16.2894 H   0  0  0  0  0  0  0  0  0  0  0  0
    1.6292  -12.2680   14.2797 H   0  0  0  0  0  0  0  0  0  0  0  0
    2.2446  -11.6090   15.9875 H   0  0  0  0  0  0  0  0  0  0  0  0
    4.3398  -10.4008   16.6561 H   0  0  0  0  0  0  0  0  0  0  0  0
    6.0589   -9.4357   15.0111 H   0  0  0  0  0  0  0  0  0  0  0  0
    5.6086  -10.2209   12.6436 H   0  0  0  0  0  0  0  0  0  0  0  0
  1  2  2  0
  2  3  1  0
  3  4  1  0
  4  5  1  0
  5  6  1  0
  6  7  1  0
  7  8  1  0
  8  9  1  0
  9 10  1  0
 10 11  1  0
  2 12  1  0
 12 13  1  0
 12 14  1  0
 14 15  1  0
 15 16  2  0
 16 17  1  0
 17 18  1  0
 18 19  2  0
 11  6  1  0
 19 15  1  0
  3 20  1  0
  4 21  1  0
  4 22  1  0
  5 23  1  0
  5 24  1  0
  7 25  1  0
  7 26  1  0
  8 27  1  0
  8 28  1  0
  9 29  1  0
  9 30  1  0
 10 31  1  0
 10 32  1  0
 11 33  1  0
 11 34  1  0
 12 35  1  0
 13 36  1  0
 14 37  1  0
 14 38  1  0
 16 39  1  0
 17 40  1  0
 18 41  1  0
M  END
>  <Energy>  (1336) 
291.35656903300003

>  <compound_id>  (1336) 
17812

>  <target_id>  (1336) 
1

>  <reference_id>  (1336) 
9

>  <inspiration_ids>  (1336) 
[63, 9]

>  <energy_score>  (1336) 
219.06215824750348

>  <distance_score>  (1336) 
15.137162681713507

>  <path>  (1336) 
/opt/xchem-fragalysis-2/maxwin/BulkDock/SCRATCH/511014/C17812-P9/C17812-P9.minimised.mol

>  <scratch_subdir>  (1336) 
/opt/xchem-fragalysis-2/maxwin/BulkDock/SCRATCH/511014/C17812-P9

>  <fragmenstein_runtime>  (1336) 
18.998252630233765

>  <fragmenstein_outcome>  (1336) 
too moved

>  <fragmenstein_mode>  (1336) 
expansion

>  <fragmenstein_error>  (1336) 


$$$$
C17813-P63
     RDKit          3D

 40 42  0  0  0  0  0  0  0  0999 V2000
   -1.3234  -25.7952   15.1272 C   0  0  0  0  0  0  0  0  0  0  0  0
   -2.5100  -25.0889   15.4613 O   0  0  0  0  0  0  0  0  0  0  0  0
   -2.3520  -23.6609   15.4830 C   0  0  0  0  0  0  0  0  0  0  0  0
   -2.2267  -23.0798   14.0560 C   0  0  0  0  0  0  0  0  0  0  0  0
   -2.4334  -21.6140   13.5250 N   0  0  0  0  0  0  0  0  0  0  0  0
   -1.8229  -20.2030   13.9438 C   0  0  0  0  0  0  0  0  0  0  0  0
   -2.0263  -18.5926   15.1013 C   0  0  0  0  0  0  0  0  0  0  0  0
   -2.8164  -17.4947   14.5282 N   0  0  0  0  0  0  0  0  0  0  0  0
   -3.5042  -16.5052   15.2814 C   0  0  0  0  0  0  0  0  0  0  0  0
   -3.9637  -17.0246   16.4410 C   0  0  0  0  0  0  0  0  0  0  0  0
   -3.2828  -18.2704   16.3909 N   0  0  0  0  0  0  0  0  0  0  0  0
   -0.7102  -20.2287   13.1262 N   0  0  0  0  0  0  0  0  0  0  0  0
   -0.7874  -21.1739   12.1287 N   0  0  0  0  0  0  0  0  0  0  0  0
   -1.9580  -21.7567   12.1537 C   0  0  0  0  0  0  0  0  0  0  0  0
   -2.3576  -22.8314   11.3916 N   0  0  0  0  0  0  0  0  0  0  0  0
   -3.6436  -22.7922   10.7307 C   0  0  0  0  0  0  0  0  0  0  0  0
   -4.3054  -24.1688   10.8208 C   0  0  0  0  0  0  0  0  0  0  0  0
   -3.3918  -25.2372   10.2323 C   0  0  0  0  0  0  0  0  0  0  0  0
   -1.9930  -25.1641   10.8474 C   0  0  0  0  0  0  0  0  0  0  0  0
   -1.4009  -23.7438   10.7978 C   0  0  0  0  0  0  0  0  0  0  0  0
   -1.0012  -25.5656   14.1088 H   0  0  0  0  0  0  0  0  0  0  0  0
   -0.5240  -25.5628   15.8371 H   0  0  0  0  0  0  0  0  0  0  0  0
   -1.5367  -26.8661   15.1852 H   0  0  0  0  0  0  0  0  0  0  0  0
   -1.4603  -23.4837   16.0915 H   0  0  0  0  0  0  0  0  0  0  0  0
   -3.1925  -23.2264   16.0165 H   0  0  0  0  0  0  0  0  0  0  0  0
   -1.1847  -23.2969   13.7605 H   0  0  0  0  0  0  0  0  0  0  0  0
   -2.8354  -23.7308   13.4243 H   0  0  0  0  0  0  0  0  0  0  0  0
   -3.0594  -15.5240   15.2748 H   0  0  0  0  0  0  0  0  0  0  0  0
   -4.3759  -16.6609   17.3644 H   0  0  0  0  0  0  0  0  0  0  0  0
   -3.5284  -18.9575   17.0734 H   0  0  0  0  0  0  0  0  0  0  0  0
   -3.5195  -22.4999    9.6801 H   0  0  0  0  0  0  0  0  0  0  0  0
   -4.2121  -22.0156   11.2053 H   0  0  0  0  0  0  0  0  0  0  0  0
   -5.2506  -24.1841   10.2827 H   0  0  0  0  0  0  0  0  0  0  0  0
   -4.5238  -24.4244   11.8612 H   0  0  0  0  0  0  0  0  0  0  0  0
   -3.8210  -26.2318   10.3963 H   0  0  0  0  0  0  0  0  0  0  0  0
   -3.3160  -25.0943    9.1473 H   0  0  0  0  0  0  0  0  0  0  0  0
   -2.0494  -25.4974   11.8905 H   0  0  0  0  0  0  0  0  0  0  0  0
   -1.3234  -25.8586   10.3277 H   0  0  0  0  0  0  0  0  0  0  0  0
   -1.1889  -23.4537    9.7616 H   0  0  0  0  0  0  0  0  0  0  0  0
   -0.4485  -23.7436   11.3414 H   0  0  0  0  0  0  0  0  0  0  0  0
  1  2  1  0
  2  3  1  0
  3  4  1  0
  4  5  1  0
  5  6  1  0
  6  7  1  0
  7  8  2  0
  8  9  1  0
  9 10  2  0
 10 11  1  0
  6 12  2  0
 12 13  1  0
 13 14  2  0
 14 15  1  0
 15 16  1  0
 16 17  1  0
 17 18  1  0
 18 19  1  0
 19 20  1  0
 14  5  1  0
 20 15  1  0
 11  7  1  0
  1 21  1  0
  1 22  1  0
  1 23  1  0
  3 24  1  0
  3 25  1  0
  4 26  1  0
  4 27  1  0
  9 28  1  0
 10 29  1  0
 11 30  1  0
 16 31  1  0
 16 32  1  0
 17 33  1  0
 17 34  1  0
 18 35  1  0
 18 36  1  0
 19 37  1  0
 19 38  1  0
 20 39  1  0
 20 40  1  0
M  END
>  <Energy>  (1337) 
337.61345890849412

>  <compound_id>  (1337) 
17813

>  <target_id>  (1337) 
1

>  <reference_id>  (1337) 
63

>  <inspiration_ids>  (1337) 
[63, 9]

>  <energy_score>  (1337) 
276.57500515883066

>  <distance_score>  (1337) 
15.778452755432246

>  <path>  (1337) 
/opt/xchem-fragalysis-2/maxwin/BulkDock/SCRATCH/511014/C17813-P63/C17813-P63.minimised.mol

>  <scratch_subdir>  (1337) 
/opt/xchem-fragalysis-2/maxwin/BulkDock/SCRATCH/511014/C17813-P63

>  <fragmenstein_runtime>  (1337) 
16.616894721984863

>  <fragmenstein_outcome>  (1337) 
too moved

>  <fragmenstein_mode>  (1337) 
expansion

>  <fragmenstein_error>  (1337) 


$$$$
C17813-P9
     RDKit          3D

 40 42  0  0  0  0  0  0  0  0999 V2000
   -9.6449  -26.5429   12.8886 C   0  0  0  0  0  0  0  0  0  0  0  0
  -11.2057  -25.5053   12.7911 O   0  0  0  0  0  0  0  0  0  0  0  0
  -12.0831  -24.4019   13.2591 C   0  0  0  0  0  0  0  0  0  0  0  0
  -11.8634  -22.9365   12.7624 C   0  0  0  0  0  0  0  0  0  0  0  0
  -10.7112  -22.0299   13.1272 N   0  0  0  0  0  0  0  0  0  0  0  0
  -10.5139  -20.5367   13.8689 C   0  0  0  0  0  0  0  0  0  0  0  0
  -10.8040  -18.6768   14.0523 C   0  0  0  0  0  0  0  0  0  0  0  0
  -10.9797  -17.9640   15.2321 N   0  0  0  0  0  0  0  0  0  0  0  0
  -10.5058  -16.6484   15.2756 C   0  0  0  0  0  0  0  0  0  0  0  0
   -9.8296  -16.3099   14.1513 C   0  0  0  0  0  0  0  0  0  0  0  0
   -9.8814  -17.4317   13.3783 N   0  0  0  0  0  0  0  0  0  0  0  0
   -9.8677  -21.1172   14.9248 N   0  0  0  0  0  0  0  0  0  0  0  0
   -9.3437  -22.3888   14.7786 N   0  0  0  0  0  0  0  0  0  0  0  0
   -9.7528  -22.9193   13.6743 C   0  0  0  0  0  0  0  0  0  0  0  0
   -9.6807  -24.2778   13.3279 N   0  0  0  0  0  0  0  0  0  0  0  0
  -10.3131  -25.4217   14.6464 C   0  0  0  0  0  0  0  0  0  0  0  0
  -11.5535  -26.8440   14.1900 C   0  0  0  0  0  0  0  0  0  0  0  0
  -11.7996  -27.3075   12.3376 C   0  0  0  0  0  0  0  0  0  0  0  0
  -11.0627  -26.1363   10.9928 C   0  0  0  0  0  0  0  0  0  0  0  0
   -9.8612  -24.7372   11.5584 C   0  0  0  0  0  0  0  0  0  0  0  0
   -9.6694  -27.3431   13.6401 H   0  0  0  0  0  0  0  0  0  0  0  0
   -8.7076  -25.9908   13.0065 H   0  0  0  0  0  0  0  0  0  0  0  0
   -9.5135  -27.1060   11.9540 H   0  0  0  0  0  0  0  0  0  0  0  0
  -12.4024  -24.4770   14.2886 H   0  0  0  0  0  0  0  0  0  0  0  0
  -13.0240  -24.6754   12.7540 H   0  0  0  0  0  0  0  0  0  0  0  0
  -12.8269  -22.4618   12.8881 H   0  0  0  0  0  0  0  0  0  0  0  0
  -11.7114  -23.1452   11.7205 H   0  0  0  0  0  0  0  0  0  0  0  0
  -10.6617  -16.0521   16.1652 H   0  0  0  0  0  0  0  0  0  0  0  0
   -9.2717  -15.4314   13.8626 H   0  0  0  0  0  0  0  0  0  0  0  0
   -9.2354  -17.6711   12.6368 H   0  0  0  0  0  0  0  0  0  0  0  0
  -10.7715  -24.8158   15.4059 H   0  0  0  0  0  0  0  0  0  0  0  0
   -9.4325  -25.8840   15.1085 H   0  0  0  0  0  0  0  0  0  0  0  0
  -12.5442  -26.5540   14.5675 H   0  0  0  0  0  0  0  0  0  0  0  0
  -11.2655  -27.7489   14.7434 H   0  0  0  0  0  0  0  0  0  0  0  0
  -12.8820  -27.3436   12.1626 H   0  0  0  0  0  0  0  0  0  0  0  0
  -11.3648  -28.3038   12.1863 H   0  0  0  0  0  0  0  0  0  0  0  0
  -11.9255  -25.6212   10.5441 H   0  0  0  0  0  0  0  0  0  0  0  0
  -10.5715  -26.7376   10.2180 H   0  0  0  0  0  0  0  0  0  0  0  0
   -8.8540  -24.9945   11.2034 H   0  0  0  0  0  0  0  0  0  0  0  0
  -10.1742  -23.8244   11.0961 H   0  0  0  0  0  0  0  0  0  0  0  0
  1  2  1  0
  2  3  1  0
  3  4  1  0
  4  5  1  0
  5  6  1  0
  6  7  1  0
  7  8  2  0
  8  9  1  0
  9 10  2  0
 10 11  1  0
  6 12  2  0
 12 13  1  0
 13 14  2  0
 14 15  1  0
 15 16  1  0
 16 17  1  0
 17 18  1  0
 18 19  1  0
 19 20  1  0
 14  5  1  0
 20 15  1  0
 11  7  1  0
  1 21  1  0
  1 22  1  0
  1 23  1  0
  3 24  1  0
  3 25  1  0
  4 26  1  0
  4 27  1  0
  9 28  1  0
 10 29  1  0
 11 30  1  0
 16 31  1  0
 16 32  1  0
 17 33  1  0
 17 34  1  0
 18 35  1  0
 18 36  1  0
 19 37  1  0
 19 38  1  0
 20 39  1  0
 20 40  1  0
M  END
>  <Energy>  (1338) 
880.1781203000246

>  <compound_id>  (1338) 
17813

>  <target_id>  (1338) 
1

>  <reference_id>  (1338) 
9

>  <inspiration_ids>  (1338) 
[63, 9]

>  <energy_score>  (1338) 
819.1396665503626

>  <distance_score>  (1338) 
16.80791021805416

>  <path>  (1338) 
/opt/xchem-fragalysis-2/maxwin/BulkDock/SCRATCH/511014/C17813-P9/C17813-P9.minimised.mol

>  <scratch_subdir>  (1338) 
/opt/xchem-fragalysis-2/maxwin/BulkDock/SCRATCH/511014/C17813-P9

>  <fragmenstein_runtime>  (1338) 
18.72708773612976

>  <fragmenstein_outcome>  (1338) 
too moved

>  <fragmenstein_mode>  (1338) 
expansion

>  <fragmenstein_error>  (1338) 


$$$$
C17814-P63
     RDKit          3D

 40 42  0  0  0  0  0  0  0  0999 V2000
    1.1589  -25.2387    9.9222 C   0  0  0  0  0  0  0  0  0  0  0  0
    0.8492  -24.4277    8.7967 O   0  0  0  0  0  0  0  0  0  0  0  0
    0.8829  -23.0249    9.0739 C   0  0  0  0  0  0  0  0  0  0  0  0
   -0.3898  -22.5079    9.7592 C   0  0  0  0  0  0  0  0  0  0  0  0
   -0.2864  -22.4639   11.1993 N   0  0  0  0  0  0  0  0  0  0  0  0
    0.6143  -21.7193   11.9837 C   0  0  0  0  0  0  0  0  0  0  0  0
    1.4495  -20.5310   11.7063 C   0  0  0  0  0  0  0  0  0  0  0  0
    1.8099  -19.8078   10.5740 C   0  0  0  0  0  0  0  0  0  0  0  0
    2.7118  -18.7911   10.8408 N   0  0  0  0  0  0  0  0  0  0  0  0
    2.8752  -18.8328   12.1387 C   0  0  0  0  0  0  0  0  0  0  0  0
    2.0955  -19.8096   12.7094 N   0  0  0  0  0  0  0  0  0  0  0  0
    0.6280  -22.3237   13.1624 N   0  0  0  0  0  0  0  0  0  0  0  0
   -0.3209  -23.3380   13.1763 N   0  0  0  0  0  0  0  0  0  0  0  0
   -1.0001  -23.3015   12.0513 C   0  0  0  0  0  0  0  0  0  0  0  0
   -2.1025  -24.0418   11.6907 N   0  0  0  0  0  0  0  0  0  0  0  0
   -2.4792  -25.1239   12.6256 C   0  0  0  0  0  0  0  0  0  0  0  0
   -3.4830  -26.0983   11.9873 C   0  0  0  0  0  0  0  0  0  0  0  0
   -4.6467  -25.4136   11.2774 C   0  0  0  0  0  0  0  0  0  0  0  0
   -4.1282  -24.3064   10.3768 C   0  0  0  0  0  0  0  0  0  0  0  0
   -3.2838  -23.3201   11.1776 C   0  0  0  0  0  0  0  0  0  0  0  0
    0.3191  -25.2688   10.6169 H   0  0  0  0  0  0  0  0  0  0  0  0
    2.0643  -24.8892   10.4273 H   0  0  0  0  0  0  0  0  0  0  0  0
    1.3335  -26.2579    9.5664 H   0  0  0  0  0  0  0  0  0  0  0  0
    1.8050  -22.7670    9.6059 H   0  0  0  0  0  0  0  0  0  0  0  0
    0.9446  -22.5439    8.0909 H   0  0  0  0  0  0  0  0  0  0  0  0
   -1.2344  -23.1276    9.4534 H   0  0  0  0  0  0  0  0  0  0  0  0
   -0.5793  -21.4847    9.4253 H   0  0  0  0  0  0  0  0  0  0  0  0
    1.4858  -19.9774    9.5559 H   0  0  0  0  0  0  0  0  0  0  0  0
    3.5120  -18.1867   12.7264 H   0  0  0  0  0  0  0  0  0  0  0  0
    1.9895  -19.9730   13.7032 H   0  0  0  0  0  0  0  0  0  0  0  0
   -1.5893  -25.7020   12.9071 H   0  0  0  0  0  0  0  0  0  0  0  0
   -2.8745  -24.6877   13.5458 H   0  0  0  0  0  0  0  0  0  0  0  0
   -3.8614  -26.7909   12.7474 H   0  0  0  0  0  0  0  0  0  0  0  0
   -2.9443  -26.7076   11.2495 H   0  0  0  0  0  0  0  0  0  0  0  0
   -5.3408  -24.9866   12.0022 H   0  0  0  0  0  0  0  0  0  0  0  0
   -5.2091  -26.1475   10.6899 H   0  0  0  0  0  0  0  0  0  0  0  0
   -3.5256  -24.7411    9.5688 H   0  0  0  0  0  0  0  0  0  0  0  0
   -4.9571  -23.7906    9.9010 H   0  0  0  0  0  0  0  0  0  0  0  0
   -3.0076  -22.4857   10.5257 H   0  0  0  0  0  0  0  0  0  0  0  0
   -3.8535  -22.8920   12.0077 H   0  0  0  0  0  0  0  0  0  0  0  0
  1  2  1  0
  2  3  1  0
  3  4  1  0
  4  5  1  0
  5  6  1  0
  6  7  1  0
  7  8  2  0
  8  9  1  0
  9 10  2  0
 10 11  1  0
  6 12  2  0
 12 13  1  0
 13 14  2  0
 14 15  1  0
 15 16  1  0
 16 17  1  0
 17 18  1  0
 18 19  1  0
 19 20  1  0
 14  5  1  0
 20 15  1  0
 11  7  1  0
  1 21  1  0
  1 22  1  0
  1 23  1  0
  3 24  1  0
  3 25  1  0
  4 26  1  0
  4 27  1  0
  8 28  1  0
 10 29  1  0
 11 30  1  0
 16 31  1  0
 16 32  1  0
 17 33  1  0
 17 34  1  0
 18 35  1  0
 18 36  1  0
 19 37  1  0
 19 38  1  0
 20 39  1  0
 20 40  1  0
M  END
>  <Energy>  (1339) 
3.1756395048095829

>  <compound_id>  (1339) 
17814

>  <target_id>  (1339) 
1

>  <reference_id>  (1339) 
63

>  <inspiration_ids>  (1339) 
[63, 9]

>  <energy_score>  (1339) 
-44.663332112341834

>  <distance_score>  (1339) 
15.495811823608202

>  <path>  (1339) 
/opt/xchem-fragalysis-2/maxwin/BulkDock/SCRATCH/511014/C17814-P63/C17814-P63.minimised.mol

>  <scratch_subdir>  (1339) 
/opt/xchem-fragalysis-2/maxwin/BulkDock/SCRATCH/511014/C17814-P63

>  <fragmenstein_runtime>  (1339) 
15.713523864746094

>  <fragmenstein_outcome>  (1339) 
too moved

>  <fragmenstein_mode>  (1339) 
expansion

>  <fragmenstein_error>  (1339) 


$$$$
C17814-P9
     RDKit          3D

 40 42  0  0  0  0  0  0  0  0999 V2000
  -10.2978  -30.2005   14.3518 C   0  0  0  0  0  0  0  0  0  0  0  0
  -10.2568  -28.9429   15.0152 O   0  0  0  0  0  0  0  0  0  0  0  0
   -9.9155  -27.8935   14.0992 C   0  0  0  0  0  0  0  0  0  0  0  0
  -10.0345  -26.5272   14.7800 C   0  0  0  0  0  0  0  0  0  0  0  0
  -11.2068  -25.7658   14.4078 N   0  0  0  0  0  0  0  0  0  0  0  0
  -11.2607  -24.5498   13.7573 C   0  0  0  0  0  0  0  0  0  0  0  0
  -10.2486  -23.5747   13.4981 C   0  0  0  0  0  0  0  0  0  0  0  0
  -10.0409  -22.9338   12.3074 C   0  0  0  0  0  0  0  0  0  0  0  0
   -8.9443  -22.1436   12.3361 N   0  0  0  0  0  0  0  0  0  0  0  0
   -8.5135  -22.2723   13.5479 C   0  0  0  0  0  0  0  0  0  0  0  0
   -9.4088  -22.9109   14.3530 N   0  0  0  0  0  0  0  0  0  0  0  0
  -12.4896  -24.3763   13.3123 N   0  0  0  0  0  0  0  0  0  0  0  0
  -13.2636  -25.4040   13.7687 N   0  0  0  0  0  0  0  0  0  0  0  0
  -12.5065  -26.2116   14.4736 C   0  0  0  0  0  0  0  0  0  0  0  0
  -12.8691  -27.3448   15.1349 N   0  0  0  0  0  0  0  0  0  0  0  0
  -14.0883  -27.9984   14.6206 C   0  0  0  0  0  0  0  0  0  0  0  0
  -15.2984  -27.7940   15.5356 C   0  0  0  0  0  0  0  0  0  0  0  0
  -15.2346  -26.4865   16.3145 C   0  0  0  0  0  0  0  0  0  0  0  0
  -13.9434  -26.3750   17.1288 C   0  0  0  0  0  0  0  0  0  0  0  0
  -12.8234  -27.2744   16.6002 C   0  0  0  0  0  0  0  0  0  0  0  0
  -10.5418  -30.9704   15.0884 H   0  0  0  0  0  0  0  0  0  0  0  0
  -11.0733  -30.2010   13.5798 H   0  0  0  0  0  0  0  0  0  0  0  0
   -9.3238  -30.4341   13.9112 H   0  0  0  0  0  0  0  0  0  0  0  0
  -10.5383  -27.9532   13.1985 H   0  0  0  0  0  0  0  0  0  0  0  0
   -8.8708  -28.0508   13.8049 H   0  0  0  0  0  0  0  0  0  0  0  0
   -9.9941  -26.5945   15.8691 H   0  0  0  0  0  0  0  0  0  0  0  0
   -9.1912  -25.9334   14.4418 H   0  0  0  0  0  0  0  0  0  0  0  0
  -10.6096  -23.0930   11.4067 H   0  0  0  0  0  0  0  0  0  0  0  0
   -7.5736  -21.8891   13.8905 H   0  0  0  0  0  0  0  0  0  0  0  0
   -9.3265  -23.0207   15.3551 H   0  0  0  0  0  0  0  0  0  0  0  0
  -14.3316  -27.6663   13.6029 H   0  0  0  0  0  0  0  0  0  0  0  0
  -13.8894  -29.0740   14.5341 H   0  0  0  0  0  0  0  0  0  0  0  0
  -16.2207  -27.8429   14.9456 H   0  0  0  0  0  0  0  0  0  0  0  0
  -15.3503  -28.6257   16.2506 H   0  0  0  0  0  0  0  0  0  0  0  0
  -15.3033  -25.6437   15.6161 H   0  0  0  0  0  0  0  0  0  0  0  0
  -16.0997  -26.3996   16.9818 H   0  0  0  0  0  0  0  0  0  0  0  0
  -13.6254  -25.3269   17.1259 H   0  0  0  0  0  0  0  0  0  0  0  0
  -14.1362  -26.6317   18.1774 H   0  0  0  0  0  0  0  0  0  0  0  0
  -11.8578  -26.9167   16.9719 H   0  0  0  0  0  0  0  0  0  0  0  0
  -12.9386  -28.2880   17.0057 H   0  0  0  0  0  0  0  0  0  0  0  0
  1  2  1  0
  2  3  1  0
  3  4  1  0
  4  5  1  0
  5  6  1  0
  6  7  1  0
  7  8  2  0
  8  9  1  0
  9 10  2  0
 10 11  1  0
  6 12  2  0
 12 13  1  0
 13 14  2  0
 14 15  1  0
 15 16  1  0
 16 17  1  0
 17 18  1  0
 18 19  1  0
 19 20  1  0
 14  5  1  0
 20 15  1  0
 11  7  1  0
  1 21  1  0
  1 22  1  0
  1 23  1  0
  3 24  1  0
  3 25  1  0
  4 26  1  0
  4 27  1  0
  8 28  1  0
 10 29  1  0
 11 30  1  0
 16 31  1  0
 16 32  1  0
 17 33  1  0
 17 34  1  0
 18 35  1  0
 18 36  1  0
 19 37  1  0
 19 38  1  0
 20 39  1  0
 20 40  1  0
M  END
>  <Energy>  (1340) 
17.639860361655593

>  <compound_id>  (1340) 
17814

>  <target_id>  (1340) 
1

>  <reference_id>  (1340) 
9

>  <inspiration_ids>  (1340) 
[63, 9]

>  <energy_score>  (1340) 
-30.19911125549126

>  <distance_score>  (1340) 
18.458467835596398

>  <path>  (1340) 
/opt/xchem-fragalysis-2/maxwin/BulkDock/SCRATCH/511014/C17814-P9/C17814-P9.minimised.mol

>  <scratch_subdir>  (1340) 
/opt/xchem-fragalysis-2/maxwin/BulkDock/SCRATCH/511014/C17814-P9

>  <fragmenstein_runtime>  (1340) 
14.655911922454834

>  <fragmenstein_outcome>  (1340) 
too moved

>  <fragmenstein_mode>  (1340) 
expansion

>  <fragmenstein_error>  (1340) 


$$$$
C8758-P106
     RDKit          2D

  0  0  0  0  0  0  0  0  0  0999 V2000
M  END
>  <compound_id>  (1341) 
8758

>  <target_id>  (1341) 
1

>  <reference_id>  (1341) 
106

>  <inspiration_ids>  (1341) 
[3, 106]

>  <energy_score>  (1341) 
nan

>  <distance_score>  (1341) 
nan

>  <path>  (1341) 
/opt/xchem-fragalysis-2/maxwin/BulkDock/SCRATCH/511014/C8758-P106/C8758-P106.minimised.mol

>  <scratch_subdir>  (1341) 
/opt/xchem-fragalysis-2/maxwin/BulkDock/SCRATCH/511014/C8758-P106

>  <fragmenstein_runtime>  (1341) 
1.0085711479187012

>  <fragmenstein_outcome>  (1341) 
too distant

>  <fragmenstein_mode>  (1341) 
expansion

>  <fragmenstein_error>  (1341) 
DistanceError: hit0

$$$$
C7553-P3
     RDKit          3D

 35 37  0  0  0  0  0  0  0  0999 V2000
   13.3977    2.2888   17.1901 C   0  0  0  0  0  0  0  0  0  0  0  0
   12.6208    1.1071   17.7442 C   0  0  0  0  0  0  0  0  0  0  0  0
   13.5662    0.2240   18.3805 O   0  0  0  0  0  0  0  0  0  0  0  0
   13.8177   -1.0637   18.0401 C   0  0  0  0  0  0  0  0  0  0  0  0
   14.7574   -1.6512   18.5757 O   0  0  0  0  0  0  0  0  0  0  0  0
   12.9065   -1.7343   16.9891 C   0  0  0  0  0  0  0  0  0  0  0  0
   13.3385   -1.3141   15.5781 C   0  0  0  0  0  0  0  0  0  0  0  0
   14.4931   -2.2472   15.2807 C   0  0  0  0  0  0  0  0  0  0  0  0
   14.0398   -3.5625   15.8917 C   0  0  0  0  0  0  0  0  0  0  0  0
   13.0819   -3.2167   16.9671 N   0  0  0  0  0  0  0  0  0  0  0  0
   12.5190   -4.1931   17.8282 C   0  0  0  0  0  0  0  0  0  0  0  0
   12.7537   -5.5073   17.6106 C   0  0  0  0  0  0  0  0  0  0  0  0
   12.0694   -6.4995   18.4674 C   0  0  0  0  0  0  0  0  0  0  0  0
   11.2318   -6.2429   19.4155 N   0  0  0  0  0  0  0  0  0  0  0  0
   11.0273   -4.9225   19.6751 C   0  0  0  0  0  0  0  0  0  0  0  0
   10.2092   -4.4212   20.5781 N   0  0  0  0  0  0  0  0  0  0  0  0
   10.3658   -3.0702   20.5133 C   0  0  0  0  0  0  0  0  0  0  0  0
   11.2522   -2.7279   19.5226 C   0  0  0  0  0  0  0  0  0  0  0  0
   11.6646   -3.9026   18.9350 N   0  0  0  0  0  0  0  0  0  0  0  0
   12.7240    3.0099   16.7189 H   0  0  0  0  0  0  0  0  0  0  0  0
   13.9522    2.7936   17.9882 H   0  0  0  0  0  0  0  0  0  0  0  0
   14.1345    1.9576   16.4514 H   0  0  0  0  0  0  0  0  0  0  0  0
   11.9198    1.4451   18.5136 H   0  0  0  0  0  0  0  0  0  0  0  0
   12.0465    0.6281   16.9519 H   0  0  0  0  0  0  0  0  0  0  0  0
   11.8557   -1.4874   17.1535 H   0  0  0  0  0  0  0  0  0  0  0  0
   13.6425   -0.2686   15.4904 H   0  0  0  0  0  0  0  0  0  0  0  0
   12.5211   -1.4947   14.8687 H   0  0  0  0  0  0  0  0  0  0  0  0
   15.4074   -1.8946   15.7723 H   0  0  0  0  0  0  0  0  0  0  0  0
   14.7020   -2.3353   14.2106 H   0  0  0  0  0  0  0  0  0  0  0  0
   14.9002   -4.1196   16.2782 H   0  0  0  0  0  0  0  0  0  0  0  0
   13.5343   -4.1667   15.1304 H   0  0  0  0  0  0  0  0  0  0  0  0
   13.3798   -5.9039   16.8248 H   0  0  0  0  0  0  0  0  0  0  0  0
   12.2947   -7.5529   18.2301 H   0  0  0  0  0  0  0  0  0  0  0  0
    9.8260   -2.4048   21.1759 H   0  0  0  0  0  0  0  0  0  0  0  0
   11.5959   -1.7547   19.2324 H   0  0  0  0  0  0  0  0  0  0  0  0
  1  2  1  0
  2  3  1  0
  3  4  1  0
  4  5  2  0
  4  6  1  0
  6  7  1  0
  7  8  1  0
  8  9  1  0
  9 10  1  0
 10 11  1  0
 11 12  2  0
 12 13  1  0
 13 14  2  0
 14 15  1  0
 15 16  2  0
 16 17  1  0
 17 18  2  0
 18 19  1  0
 10  6  1  0
 19 11  1  0
 19 15  1  0
  1 20  1  0
  1 21  1  0
  1 22  1  0
  2 23  1  0
  2 24  1  0
  6 25  1  0
  7 26  1  0
  7 27  1  0
  8 28  1  0
  8 29  1  0
  9 30  1  0
  9 31  1  0
 12 32  1  0
 13 33  1  0
 17 34  1  0
 18 35  1  0
M  END
>  <Energy>  (1342) 
107.60411787080021

>  <compound_id>  (1342) 
7553

>  <target_id>  (1342) 
1

>  <reference_id>  (1342) 
3

>  <inspiration_ids>  (1342) 
[3, 106]

>  <energy_score>  (1342) 
-34.34130887477289

>  <distance_score>  (1342) 
1.261292111129464

>  <path>  (1342) 
/opt/xchem-fragalysis-2/maxwin/BulkDock/SCRATCH/511014/C7553-P3/C7553-P3.minimised.mol

>  <scratch_subdir>  (1342) 
/opt/xchem-fragalysis-2/maxwin/BulkDock/SCRATCH/511014/C7553-P3

>  <fragmenstein_runtime>  (1342) 
3.3151957988739014

>  <fragmenstein_outcome>  (1342) 
too moved

>  <fragmenstein_mode>  (1342) 
expansion

>  <fragmenstein_error>  (1342) 


$$$$
C7553-P106
     RDKit          3D

 35 37  0  0  0  0  0  0  0  0999 V2000
   14.0344    2.7921   18.4159 C   0  0  0  0  0  0  0  0  0  0  0  0
   13.4969    3.3276   17.1023 C   0  0  0  0  0  0  0  0  0  0  0  0
   12.3752    2.5606   16.6390 O   0  0  0  0  0  0  0  0  0  0  0  0
   12.6759    1.3735   16.0423 C   0  0  0  0  0  0  0  0  0  0  0  0
   13.8091    0.9250   15.9113 O   0  0  0  0  0  0  0  0  0  0  0  0
   11.3845    0.7153   15.5078 C   0  0  0  0  0  0  0  0  0  0  0  0
   10.9992    1.3623   14.1879 C   0  0  0  0  0  0  0  0  0  0  0  0
   11.9491    0.6973   13.2088 C   0  0  0  0  0  0  0  0  0  0  0  0
   12.2080   -0.7045   13.7816 C   0  0  0  0  0  0  0  0  0  0  0  0
   11.5760   -0.7179   15.1152 N   0  0  0  0  0  0  0  0  0  0  0  0
   11.8722   -1.6836   16.0804 C   0  0  0  0  0  0  0  0  0  0  0  0
   13.1128   -2.1688   16.3028 C   0  0  0  0  0  0  0  0  0  0  0  0
   13.5051   -3.0035   17.4901 C   0  0  0  0  0  0  0  0  0  0  0  0
   12.8833   -3.2252   18.6052 N   0  0  0  0  0  0  0  0  0  0  0  0
   11.6157   -2.6801   18.6527 C   0  0  0  0  0  0  0  0  0  0  0  0
   10.0924   -2.5288   19.9382 N   0  0  0  0  0  0  0  0  0  0  0  0
    8.5635   -1.4090   18.9546 C   0  0  0  0  0  0  0  0  0  0  0  0
    9.0030   -1.5627   16.9705 C   0  0  0  0  0  0  0  0  0  0  0  0
   10.8651   -2.0421   17.0041 N   0  0  0  0  0  0  0  0  0  0  0  0
   13.2558    2.7976   19.1835 H   0  0  0  0  0  0  0  0  0  0  0  0
   14.3778    1.7578   18.3206 H   0  0  0  0  0  0  0  0  0  0  0  0
   14.8707    3.4037   18.7666 H   0  0  0  0  0  0  0  0  0  0  0  0
   13.1441    4.3547   17.2426 H   0  0  0  0  0  0  0  0  0  0  0  0
   14.2796    3.3600   16.3354 H   0  0  0  0  0  0  0  0  0  0  0  0
   10.5844    0.8181   16.2438 H   0  0  0  0  0  0  0  0  0  0  0  0
   11.0961    2.4519   14.1798 H   0  0  0  0  0  0  0  0  0  0  0  0
    9.9654    1.1041   13.9316 H   0  0  0  0  0  0  0  0  0  0  0  0
   12.8937    1.2520   13.1550 H   0  0  0  0  0  0  0  0  0  0  0  0
   11.5278    0.6950   12.2036 H   0  0  0  0  0  0  0  0  0  0  0  0
   13.2887   -0.8767   13.8269 H   0  0  0  0  0  0  0  0  0  0  0  0
   11.7794   -1.5002   13.1749 H   0  0  0  0  0  0  0  0  0  0  0  0
   13.9537   -1.8852   15.6797 H   0  0  0  0  0  0  0  0  0  0  0  0
   14.5132   -3.4440   17.3937 H   0  0  0  0  0  0  0  0  0  0  0  0
    7.8185   -0.7999   19.5131 H   0  0  0  0  0  0  0  0  0  0  0  0
    8.8529   -0.7996   16.2050 H   0  0  0  0  0  0  0  0  0  0  0  0
  1  2  1  0
  2  3  1  0
  3  4  1  0
  4  5  2  0
  4  6  1  0
  6  7  1  0
  7  8  1  0
  8  9  1  0
  9 10  1  0
 10 11  1  0
 11 12  2  0
 12 13  1  0
 13 14  2  0
 14 15  1  0
 15 16  2  0
 16 17  1  0
 17 18  2  0
 18 19  1  0
 10  6  1  0
 19 11  1  0
 19 15  1  0
  1 20  1  0
  1 21  1  0
  1 22  1  0
  2 23  1  0
  2 24  1  0
  6 25  1  0
  7 26  1  0
  7 27  1  0
  8 28  1  0
  8 29  1  0
  9 30  1  0
  9 31  1  0
 12 32  1  0
 13 33  1  0
 17 34  1  0
 18 35  1  0
M  END
>  <Energy>  (1343) 
789.47445284993853

>  <compound_id>  (1343) 
7553

>  <target_id>  (1343) 
1

>  <reference_id>  (1343) 
106

>  <inspiration_ids>  (1343) 
[3, 106]

>  <energy_score>  (1343) 
655.2775140152855

>  <distance_score>  (1343) 
2.8711553587600265

>  <path>  (1343) 
/opt/xchem-fragalysis-2/maxwin/BulkDock/SCRATCH/511014/C7553-P106/C7553-P106.minimised.mol

>  <scratch_subdir>  (1343) 
/opt/xchem-fragalysis-2/maxwin/BulkDock/SCRATCH/511014/C7553-P106

>  <fragmenstein_runtime>  (1343) 
5.779563665390015

>  <fragmenstein_outcome>  (1343) 
too moved

>  <fragmenstein_mode>  (1343) 
expansion

>  <fragmenstein_error>  (1343) 


$$$$
C8763-P106
     RDKit          2D

  0  0  0  0  0  0  0  0  0  0999 V2000
M  END
>  <compound_id>  (1344) 
8763

>  <target_id>  (1344) 
1

>  <reference_id>  (1344) 
106

>  <inspiration_ids>  (1344) 
[3, 106]

>  <energy_score>  (1344) 
nan

>  <distance_score>  (1344) 
nan

>  <path>  (1344) 
/opt/xchem-fragalysis-2/maxwin/BulkDock/SCRATCH/511014/C8763-P106/C8763-P106.minimised.mol

>  <scratch_subdir>  (1344) 
/opt/xchem-fragalysis-2/maxwin/BulkDock/SCRATCH/511014/C8763-P106

>  <fragmenstein_runtime>  (1344) 
0.36634016036987305

>  <fragmenstein_outcome>  (1344) 
too distant

>  <fragmenstein_mode>  (1344) 
expansion

>  <fragmenstein_error>  (1344) 
DistanceError: hit1

$$$$
C8765-P106
     RDKit          2D

  0  0  0  0  0  0  0  0  0  0999 V2000
M  END
>  <compound_id>  (1345) 
8765

>  <target_id>  (1345) 
1

>  <reference_id>  (1345) 
106

>  <inspiration_ids>  (1345) 
[3, 106]

>  <energy_score>  (1345) 
nan

>  <distance_score>  (1345) 
nan

>  <path>  (1345) 
/opt/xchem-fragalysis-2/maxwin/BulkDock/SCRATCH/511014/C8765-P106/C8765-P106.minimised.mol

>  <scratch_subdir>  (1345) 
/opt/xchem-fragalysis-2/maxwin/BulkDock/SCRATCH/511014/C8765-P106

>  <fragmenstein_runtime>  (1345) 
0.3500051498413086

>  <fragmenstein_outcome>  (1345) 
too distant

>  <fragmenstein_mode>  (1345) 
expansion

>  <fragmenstein_error>  (1345) 
DistanceError: hit1

$$$$
C8770-P3
     RDKit          3D

 34 36  0  0  0  0  0  0  0  0999 V2000
   -2.4537  -17.0936   24.6919 C   0  0  0  0  0  0  0  0  0  0  0  0
   -3.8286  -18.2271   23.9946 O   0  0  0  0  0  0  0  0  0  0  0  0
   -4.1665  -19.9379   23.8233 C   0  0  0  0  0  0  0  0  0  0  0  0
   -5.4205  -20.8519   22.7724 C   0  0  0  0  0  0  0  0  0  0  0  0
   -4.4996  -21.6714   21.9662 O   0  0  0  0  0  0  0  0  0  0  0  0
   -6.4141  -20.2607   21.7255 C   0  0  0  0  0  0  0  0  0  0  0  0
   -7.3684  -21.3974   21.3753 C   0  0  0  0  0  0  0  0  0  0  0  0
   -7.8423  -21.8470   22.6890 N   0  0  0  0  0  0  0  0  0  0  0  0
   -9.2691  -21.7585   23.0573 C   0  0  0  0  0  0  0  0  0  0  0  0
  -10.1114  -21.3281   22.1099 C   0  0  0  0  0  0  0  0  0  0  0  0
  -11.4867  -21.0100   22.4359 C   0  0  0  0  0  0  0  0  0  0  0  0
  -12.1491  -21.2360   23.5116 N   0  0  0  0  0  0  0  0  0  0  0  0
  -11.4390  -21.9309   24.4163 C   0  0  0  0  0  0  0  0  0  0  0  0
  -11.8825  -22.4018   25.5693 N   0  0  0  0  0  0  0  0  0  0  0  0
  -10.8700  -23.1436   26.0661 C   0  0  0  0  0  0  0  0  0  0  0  0
   -9.8225  -23.1188   25.1936 C   0  0  0  0  0  0  0  0  0  0  0  0
  -10.0669  -22.2357   24.1856 N   0  0  0  0  0  0  0  0  0  0  0  0
   -6.5230  -21.9730   23.3997 C   0  0  0  0  0  0  0  0  0  0  0  0
   -2.2290  -16.2480   24.0563 H   0  0  0  0  0  0  0  0  0  0  0  0
   -1.8237  -17.4333   25.5189 H   0  0  0  0  0  0  0  0  0  0  0  0
   -2.6970  -16.3225   25.4519 H   0  0  0  0  0  0  0  0  0  0  0  0
   -4.4595  -20.2230   24.8297 H   0  0  0  0  0  0  0  0  0  0  0  0
   -3.2100  -20.2827   23.4148 H   0  0  0  0  0  0  0  0  0  0  0  0
   -4.0686  -21.0380   21.3580 H   0  0  0  0  0  0  0  0  0  0  0  0
   -5.9666  -20.0070   20.7577 H   0  0  0  0  0  0  0  0  0  0  0  0
   -6.9709  -19.4105   22.1328 H   0  0  0  0  0  0  0  0  0  0  0  0
   -6.8387  -22.2236   20.8805 H   0  0  0  0  0  0  0  0  0  0  0  0
   -8.0914  -21.0557   20.6427 H   0  0  0  0  0  0  0  0  0  0  0  0
   -9.8875  -21.2355   21.0631 H   0  0  0  0  0  0  0  0  0  0  0  0
  -11.9334  -20.4724   21.6144 H   0  0  0  0  0  0  0  0  0  0  0  0
  -10.9729  -23.6869   26.9929 H   0  0  0  0  0  0  0  0  0  0  0  0
   -8.8934  -23.5933   25.1354 H   0  0  0  0  0  0  0  0  0  0  0  0
   -6.6923  -21.9261   24.4545 H   0  0  0  0  0  0  0  0  0  0  0  0
   -6.1138  -22.9468   23.1151 H   0  0  0  0  0  0  0  0  0  0  0  0
  1  2  1  0
  2  3  1  0
  3  4  1  0
  4  5  1  0
  4  6  1  0
  6  7  1  0
  7  8  1  0
  8  9  1  0
  9 10  2  0
 10 11  1  0
 11 12  2  0
 12 13  1  0
 13 14  2  0
 14 15  1  0
 15 16  2  0
 16 17  1  0
  8 18  1  0
 18  4  1  0
 17  9  1  0
 17 13  1  0
  1 19  1  0
  1 20  1  0
  1 21  1  0
  3 22  1  0
  3 23  1  0
  5 24  1  0
  6 25  1  0
  6 26  1  0
  7 27  1  0
  7 28  1  0
 10 29  1  0
 11 30  1  0
 15 31  1  0
 16 32  1  0
 18 33  1  0
 18 34  1  0
M  END
>  <Energy>  (1346) 
369.0037335580426

>  <compound_id>  (1346) 
8770

>  <target_id>  (1346) 
1

>  <reference_id>  (1346) 
3

>  <inspiration_ids>  (1346) 
[3, 106]

>  <energy_score>  (1346) 
236.4193876368821

>  <distance_score>  (1346) 
13.371972581173187

>  <path>  (1346) 
/opt/xchem-fragalysis-2/maxwin/BulkDock/SCRATCH/511014/C8770-P3/C8770-P3.minimised.mol

>  <scratch_subdir>  (1346) 
/opt/xchem-fragalysis-2/maxwin/BulkDock/SCRATCH/511014/C8770-P3

>  <fragmenstein_runtime>  (1346) 
11.22564435005188

>  <fragmenstein_outcome>  (1346) 
too moved

>  <fragmenstein_mode>  (1346) 
expansion

>  <fragmenstein_error>  (1346) 


$$$$
C8770-P106
     RDKit          3D

 34 36  0  0  0  0  0  0  0  0999 V2000
   -1.4259  -18.7039   16.1352 C   0  0  0  0  0  0  0  0  0  0  0  0
   -2.4602  -18.6576   17.1353 O   0  0  0  0  0  0  0  0  0  0  0  0
   -3.2571  -19.9033   17.1846 C   0  0  0  0  0  0  0  0  0  0  0  0
   -4.1121  -20.0684   18.4791 C   0  0  0  0  0  0  0  0  0  0  0  0
   -3.1738  -20.1090   19.5546 O   0  0  0  0  0  0  0  0  0  0  0  0
   -5.1280  -18.9490   18.7365 C   0  0  0  0  0  0  0  0  0  0  0  0
   -6.1408  -19.5337   19.7370 C   0  0  0  0  0  0  0  0  0  0  0  0
   -5.7144  -20.9349   19.9395 N   0  0  0  0  0  0  0  0  0  0  0  0
   -6.3880  -21.7682   20.8462 C   0  0  0  0  0  0  0  0  0  0  0  0
   -7.7272  -21.7672   20.9390 C   0  0  0  0  0  0  0  0  0  0  0  0
   -8.3158  -22.4073   22.1253 C   0  0  0  0  0  0  0  0  0  0  0  0
   -7.6945  -23.1501   22.9779 N   0  0  0  0  0  0  0  0  0  0  0  0
   -6.3522  -23.2766   22.7908 C   0  0  0  0  0  0  0  0  0  0  0  0
   -5.4945  -23.9126   23.5629 N   0  0  0  0  0  0  0  0  0  0  0  0
   -4.2584  -23.5426   23.1363 C   0  0  0  0  0  0  0  0  0  0  0  0
   -4.3496  -22.7067   22.0507 C   0  0  0  0  0  0  0  0  0  0  0  0
   -5.6929  -22.5385   21.8078 N   0  0  0  0  0  0  0  0  0  0  0  0
   -4.9841  -21.3428   18.7089 C   0  0  0  0  0  0  0  0  0  0  0  0
   -0.4519  -18.7756   16.6228 H   0  0  0  0  0  0  0  0  0  0  0  0
   -1.4882  -17.8068   15.5148 H   0  0  0  0  0  0  0  0  0  0  0  0
   -1.5506  -19.5655   15.4703 H   0  0  0  0  0  0  0  0  0  0  0  0
   -2.5558  -20.7450   17.1287 H   0  0  0  0  0  0  0  0  0  0  0  0
   -3.9033  -19.9155   16.3004 H   0  0  0  0  0  0  0  0  0  0  0  0
   -3.6930  -20.4575   20.3038 H   0  0  0  0  0  0  0  0  0  0  0  0
   -5.6504  -18.6731   17.8132 H   0  0  0  0  0  0  0  0  0  0  0  0
   -4.6534  -18.0515   19.1404 H   0  0  0  0  0  0  0  0  0  0  0  0
   -7.1467  -19.4851   19.3055 H   0  0  0  0  0  0  0  0  0  0  0  0
   -6.1437  -18.9816   20.6812 H   0  0  0  0  0  0  0  0  0  0  0  0
   -8.3850  -21.2526   20.2589 H   0  0  0  0  0  0  0  0  0  0  0  0
   -9.3834  -22.1852   22.2846 H   0  0  0  0  0  0  0  0  0  0  0  0
   -3.3625  -23.9041   23.6226 H   0  0  0  0  0  0  0  0  0  0  0  0
   -3.5930  -22.2388   21.4444 H   0  0  0  0  0  0  0  0  0  0  0  0
   -4.3739  -22.2325   18.8940 H   0  0  0  0  0  0  0  0  0  0  0  0
   -5.6817  -21.5210   17.8838 H   0  0  0  0  0  0  0  0  0  0  0  0
  1  2  1  0
  2  3  1  0
  3  4  1  0
  4  5  1  0
  4  6  1  0
  6  7  1  0
  7  8  1  0
  8  9  1  0
  9 10  2  0
 10 11  1  0
 11 12  2  0
 12 13  1  0
 13 14  2  0
 14 15  1  0
 15 16  2  0
 16 17  1  0
  8 18  1  0
 18  4  1  0
 17  9  1  0
 17 13  1  0
  1 19  1  0
  1 20  1  0
  1 21  1  0
  3 22  1  0
  3 23  1  0
  5 24  1  0
  6 25  1  0
  6 26  1  0
  7 27  1  0
  7 28  1  0
 10 29  1  0
 11 30  1  0
 15 31  1  0
 16 32  1  0
 18 33  1  0
 18 34  1  0
M  END
>  <Energy>  (1347) 
120.20923314915878

>  <compound_id>  (1347) 
8770

>  <target_id>  (1347) 
1

>  <reference_id>  (1347) 
106

>  <inspiration_ids>  (1347) 
[3, 106]

>  <energy_score>  (1347) 
-12.375112772011107

>  <distance_score>  (1347) 
14.472496170166721

>  <path>  (1347) 
/opt/xchem-fragalysis-2/maxwin/BulkDock/SCRATCH/511014/C8770-P106/C8770-P106.minimised.mol

>  <scratch_subdir>  (1347) 
/opt/xchem-fragalysis-2/maxwin/BulkDock/SCRATCH/511014/C8770-P106

>  <fragmenstein_runtime>  (1347) 
21.904020071029663

>  <fragmenstein_outcome>  (1347) 
too moved

>  <fragmenstein_mode>  (1347) 
expansion

>  <fragmenstein_error>  (1347) 


$$$$
C8771-P3
     RDKit          3D

 44 46  0  0  0  0  0  0  0  0999 V2000
   14.2699    2.1999   14.7234 C   0  0  0  0  0  0  0  0  0  0  0  0
   13.7044    1.4988   15.9671 C   0  0  0  0  0  0  0  0  0  0  0  0
   12.2934    2.0121   16.2313 C   0  0  0  0  0  0  0  0  0  0  0  0
   14.6306    1.7780   17.1511 C   0  0  0  0  0  0  0  0  0  0  0  0
   13.6300    0.1005   15.6005 O   0  0  0  0  0  0  0  0  0  0  0  0
   13.2211   -0.8377   16.4877 C   0  0  0  0  0  0  0  0  0  0  0  0
   13.1501   -0.6762   17.6999 O   0  0  0  0  0  0  0  0  0  0  0  0
   12.8317   -2.1461   15.8075 C   0  0  0  0  0  0  0  0  0  0  0  0
   11.3913   -2.4653   16.1977 C   0  0  0  0  0  0  0  0  0  0  0  0
   13.7778   -3.2620   16.2363 C   0  0  0  0  0  0  0  0  0  0  0  0
   14.9607   -3.0985   15.2884 C   0  0  0  0  0  0  0  0  0  0  0  0
   14.3715   -2.6397   14.0263 N   0  0  0  0  0  0  0  0  0  0  0  0
   14.9291   -2.7896   12.7379 C   0  0  0  0  0  0  0  0  0  0  0  0
   14.1600   -2.7640   11.6280 C   0  0  0  0  0  0  0  0  0  0  0  0
   14.8247   -2.9754   10.3196 C   0  0  0  0  0  0  0  0  0  0  0  0
   16.0839   -3.1848   10.1213 N   0  0  0  0  0  0  0  0  0  0  0  0
   16.8651   -3.1833   11.2363 C   0  0  0  0  0  0  0  0  0  0  0  0
   18.1707   -3.3562   11.2928 N   0  0  0  0  0  0  0  0  0  0  0  0
   18.5138   -3.2092   12.6021 C   0  0  0  0  0  0  0  0  0  0  0  0
   17.4076   -2.9502   13.3711 C   0  0  0  0  0  0  0  0  0  0  0  0
   16.3255   -2.9741   12.5182 N   0  0  0  0  0  0  0  0  0  0  0  0
   12.9985   -2.1456   14.2842 C   0  0  0  0  0  0  0  0  0  0  0  0
   13.6473    1.9991   13.8435 H   0  0  0  0  0  0  0  0  0  0  0  0
   14.3343    3.2844   14.8608 H   0  0  0  0  0  0  0  0  0  0  0  0
   15.2705    1.8201   14.4861 H   0  0  0  0  0  0  0  0  0  0  0  0
   12.2910    3.0892   16.4307 H   0  0  0  0  0  0  0  0  0  0  0  0
   11.6482    1.8260   15.3663 H   0  0  0  0  0  0  0  0  0  0  0  0
   11.8321    1.5135   17.0896 H   0  0  0  0  0  0  0  0  0  0  0  0
   14.8266    2.8504   17.2602 H   0  0  0  0  0  0  0  0  0  0  0  0
   14.2065    1.4349   18.0992 H   0  0  0  0  0  0  0  0  0  0  0  0
   15.5879    1.2603   17.0245 H   0  0  0  0  0  0  0  0  0  0  0  0
   11.0616   -3.4149   15.7634 H   0  0  0  0  0  0  0  0  0  0  0  0
   11.2760   -2.5370   17.2849 H   0  0  0  0  0  0  0  0  0  0  0  0
   10.7138   -1.6860   15.8438 H   0  0  0  0  0  0  0  0  0  0  0  0
   13.3199   -4.2470   16.0800 H   0  0  0  0  0  0  0  0  0  0  0  0
   14.0942   -3.2022   17.2827 H   0  0  0  0  0  0  0  0  0  0  0  0
   15.6415   -2.3361   15.6815 H   0  0  0  0  0  0  0  0  0  0  0  0
   15.4880   -4.0518   15.1814 H   0  0  0  0  0  0  0  0  0  0  0  0
   13.0890   -2.6309   11.6209 H   0  0  0  0  0  0  0  0  0  0  0  0
   14.1511   -2.9519    9.4473 H   0  0  0  0  0  0  0  0  0  0  0  0
   19.5444   -3.2803   12.9246 H   0  0  0  0  0  0  0  0  0  0  0  0
   17.3278   -2.7424   14.4222 H   0  0  0  0  0  0  0  0  0  0  0  0
   12.8341   -1.1696   13.8160 H   0  0  0  0  0  0  0  0  0  0  0  0
   12.2902   -2.8501   13.8291 H   0  0  0  0  0  0  0  0  0  0  0  0
  1  2  1  0
  2  3  1  0
  2  4  1  0
  2  5  1  0
  5  6  1  0
  6  7  2  0
  6  8  1  0
  8  9  1  0
  8 10  1  0
 10 11  1  0
 11 12  1  0
 12 13  1  0
 13 14  2  0
 14 15  1  0
 15 16  2  0
 16 17  1  0
 17 18  2  0
 18 19  1  0
 19 20  2  0
 20 21  1  0
 12 22  1  0
 22  8  1  0
 21 13  1  0
 21 17  1  0
  1 23  1  0
  1 24  1  0
  1 25  1  0
  3 26  1  0
  3 27  1  0
  3 28  1  0
  4 29  1  0
  4 30  1  0
  4 31  1  0
  9 32  1  0
  9 33  1  0
  9 34  1  0
 10 35  1  0
 10 36  1  0
 11 37  1  0
 11 38  1  0
 14 39  1  0
 15 40  1  0
 19 41  1  0
 20 42  1  0
 22 43  1  0
 22 44  1  0
M  END
>  <Energy>  (1348) 
56.871646197905385

>  <compound_id>  (1348) 
8771

>  <target_id>  (1348) 
1

>  <reference_id>  (1348) 
3

>  <inspiration_ids>  (1348) 
[3, 106]

>  <energy_score>  (1348) 
-57.04952840484452

>  <distance_score>  (1348) 
1.8166065341376356

>  <path>  (1348) 
/opt/xchem-fragalysis-2/maxwin/BulkDock/SCRATCH/511014/C8771-P3/C8771-P3.minimised.mol

>  <scratch_subdir>  (1348) 
/opt/xchem-fragalysis-2/maxwin/BulkDock/SCRATCH/511014/C8771-P3

>  <fragmenstein_runtime>  (1348) 
21.64110541343689

>  <fragmenstein_outcome>  (1348) 
too moved

>  <fragmenstein_mode>  (1348) 
expansion

>  <fragmenstein_error>  (1348) 


$$$$
C8771-P106
     RDKit          3D

 44 46  0  0  0  0  0  0  0  0999 V2000
   14.3821    2.9493   14.8345 C   0  0  0  0  0  0  0  0  0  0  0  0
   13.6768    2.0605   15.8693 C   0  0  0  0  0  0  0  0  0  0  0  0
   12.1745    2.3328   15.8183 C   0  0  0  0  0  0  0  0  0  0  0  0
   14.2753    2.3563   17.2473 C   0  0  0  0  0  0  0  0  0  0  0  0
   13.9164    0.7024   15.4296 O   0  0  0  0  0  0  0  0  0  0  0  0
   13.4405   -0.3381   16.1583 C   0  0  0  0  0  0  0  0  0  0  0  0
   12.9855   -0.2370   17.2880 O   0  0  0  0  0  0  0  0  0  0  0  0
   13.5415   -1.6650   15.4285 C   0  0  0  0  0  0  0  0  0  0  0  0
   12.4737   -2.6101   15.9902 C   0  0  0  0  0  0  0  0  0  0  0  0
   14.9436   -2.2269   15.5979 C   0  0  0  0  0  0  0  0  0  0  0  0
   15.7302   -1.5931   14.4499 C   0  0  0  0  0  0  0  0  0  0  0  0
   14.7522   -1.4159   13.3607 N   0  0  0  0  0  0  0  0  0  0  0  0
   15.0681   -0.7162   12.1796 C   0  0  0  0  0  0  0  0  0  0  0  0
   14.4383    0.4118   11.7980 C   0  0  0  0  0  0  0  0  0  0  0  0
   14.8808    1.0421   10.5300 C   0  0  0  0  0  0  0  0  0  0  0  0
   15.7850    0.5986    9.7182 N   0  0  0  0  0  0  0  0  0  0  0  0
   16.3894   -0.5650   10.0908 C   0  0  0  0  0  0  0  0  0  0  0  0
   17.2991   -1.2517    9.4240 N   0  0  0  0  0  0  0  0  0  0  0  0
   17.6164   -2.3194   10.2160 C   0  0  0  0  0  0  0  0  0  0  0  0
   16.8692   -2.3136   11.3654 C   0  0  0  0  0  0  0  0  0  0  0  0
   16.0688   -1.1992   11.2997 N   0  0  0  0  0  0  0  0  0  0  0  0
   13.3810   -1.4958   13.9167 C   0  0  0  0  0  0  0  0  0  0  0  0
   15.4516    2.7140   14.7847 H   0  0  0  0  0  0  0  0  0  0  0  0
   13.9797    2.7790   13.8303 H   0  0  0  0  0  0  0  0  0  0  0  0
   14.2704    4.0131   15.0691 H   0  0  0  0  0  0  0  0  0  0  0  0
   11.9549    3.3857   16.0259 H   0  0  0  0  0  0  0  0  0  0  0  0
   11.7669    2.0846   14.8312 H   0  0  0  0  0  0  0  0  0  0  0  0
   11.6165    1.7330   16.5383 H   0  0  0  0  0  0  0  0  0  0  0  0
   14.2741    3.4314   17.4584 H   0  0  0  0  0  0  0  0  0  0  0  0
   13.7176    1.8771   18.0569 H   0  0  0  0  0  0  0  0  0  0  0  0
   15.3060    1.9901   17.3093 H   0  0  0  0  0  0  0  0  0  0  0  0
   12.4714   -3.5739   15.4756 H   0  0  0  0  0  0  0  0  0  0  0  0
   12.6423   -2.8119   17.0538 H   0  0  0  0  0  0  0  0  0  0  0  0
   11.4725   -2.1767   15.8851 H   0  0  0  0  0  0  0  0  0  0  0  0
   14.9580   -3.3166   15.5004 H   0  0  0  0  0  0  0  0  0  0  0  0
   15.3993   -1.9835   16.5641 H   0  0  0  0  0  0  0  0  0  0  0  0
   16.1334   -0.6190   14.7509 H   0  0  0  0  0  0  0  0  0  0  0  0
   16.5687   -2.2345   14.1714 H   0  0  0  0  0  0  0  0  0  0  0  0
   13.6574    0.8993   12.3588 H   0  0  0  0  0  0  0  0  0  0  0  0
   14.3625    1.9817   10.2758 H   0  0  0  0  0  0  0  0  0  0  0  0
   18.3521   -3.0512    9.9071 H   0  0  0  0  0  0  0  0  0  0  0  0
   16.8218   -2.9986   12.1930 H   0  0  0  0  0  0  0  0  0  0  0  0
   12.7633   -0.6275   13.6654 H   0  0  0  0  0  0  0  0  0  0  0  0
   12.8944   -2.3669   13.4632 H   0  0  0  0  0  0  0  0  0  0  0  0
  1  2  1  0
  2  3  1  0
  2  4  1  0
  2  5  1  0
  5  6  1  0
  6  7  2  0
  6  8  1  0
  8  9  1  0
  8 10  1  0
 10 11  1  0
 11 12  1  0
 12 13  1  0
 13 14  2  0
 14 15  1  0
 15 16  2  0
 16 17  1  0
 17 18  2  0
 18 19  1  0
 19 20  2  0
 20 21  1  0
 12 22  1  0
 22  8  1  0
 21 13  1  0
 21 17  1  0
  1 23  1  0
  1 24  1  0
  1 25  1  0
  3 26  1  0
  3 27  1  0
  3 28  1  0
  4 29  1  0
  4 30  1  0
  4 31  1  0
  9 32  1  0
  9 33  1  0
  9 34  1  0
 10 35  1  0
 10 36  1  0
 11 37  1  0
 11 38  1  0
 14 39  1  0
 15 40  1  0
 19 41  1  0
 20 42  1  0
 22 43  1  0
 22 44  1  0
M  END
>  <Energy>  (1349) 
58.098086920822155

>  <compound_id>  (1349) 
8771

>  <target_id>  (1349) 
1

>  <reference_id>  (1349) 
106

>  <inspiration_ids>  (1349) 
[3, 106]

>  <energy_score>  (1349) 
-55.82308768192837

>  <distance_score>  (1349) 
2.233800682812319

>  <path>  (1349) 
/opt/xchem-fragalysis-2/maxwin/BulkDock/SCRATCH/511014/C8771-P106/C8771-P106.minimised.mol

>  <scratch_subdir>  (1349) 
/opt/xchem-fragalysis-2/maxwin/BulkDock/SCRATCH/511014/C8771-P106

>  <fragmenstein_runtime>  (1349) 
21.43205952644348

>  <fragmenstein_outcome>  (1349) 
too moved

>  <fragmenstein_mode>  (1349) 
expansion

>  <fragmenstein_error>  (1349) 


$$$$
C8773-P106
     RDKit          2D

  0  0  0  0  0  0  0  0  0  0999 V2000
M  END
>  <compound_id>  (1350) 
8773

>  <target_id>  (1350) 
1

>  <reference_id>  (1350) 
106

>  <inspiration_ids>  (1350) 
[3, 106]

>  <energy_score>  (1350) 
nan

>  <distance_score>  (1350) 
nan

>  <path>  (1350) 
/opt/xchem-fragalysis-2/maxwin/BulkDock/SCRATCH/511014/C8773-P106/C8773-P106.minimised.mol

>  <scratch_subdir>  (1350) 
/opt/xchem-fragalysis-2/maxwin/BulkDock/SCRATCH/511014/C8773-P106

>  <fragmenstein_runtime>  (1350) 
0.884209394454956

>  <fragmenstein_outcome>  (1350) 
too distant

>  <fragmenstein_mode>  (1350) 
expansion

>  <fragmenstein_error>  (1350) 
DistanceError: hit0

$$$$
C8774-P3
     RDKit          3D

 37 39  0  0  0  0  0  0  0  0999 V2000
   -7.5119  -15.4591   19.3829 F   0  0  0  0  0  0  0  0  0  0  0  0
   -6.8967  -16.6674   19.4433 C   0  0  0  0  0  0  0  0  0  0  0  0
   -6.6133  -16.9056   20.7471 F   0  0  0  0  0  0  0  0  0  0  0  0
   -7.8099  -17.5950   19.0632 F   0  0  0  0  0  0  0  0  0  0  0  0
   -5.6608  -16.6997   18.4497 C   0  0  0  0  0  0  0  0  0  0  0  0
   -4.7217  -15.5291   18.4140 N   0  0  0  0  0  0  0  0  0  0  0  0
   -4.8058  -14.6801   17.2145 C   0  0  0  0  0  0  0  0  0  0  0  0
   -3.4205  -13.8956   17.1606 C   0  0  0  0  0  0  0  0  0  0  0  0
   -2.6782  -14.1603   18.6016 C   0  0  0  0  0  0  0  0  0  0  0  0
   -1.3886  -13.4732   20.0283 C   0  0  0  0  0  0  0  0  0  0  0  0
   -0.8363  -11.6373   20.1850 N   0  0  0  0  0  0  0  0  0  0  0  0
    0.3260  -10.2045   19.8563 C   0  0  0  0  0  0  0  0  0  0  0  0
    1.6273  -10.1921   20.3365 C   0  0  0  0  0  0  0  0  0  0  0  0
    2.6450   -9.2129   19.8518 C   0  0  0  0  0  0  0  0  0  0  0  0
    2.4482   -8.2442   19.0291 N   0  0  0  0  0  0  0  0  0  0  0  0
    1.1818   -8.1694   18.5405 C   0  0  0  0  0  0  0  0  0  0  0  0
    0.7614   -7.2940   17.6503 N   0  0  0  0  0  0  0  0  0  0  0  0
   -0.5359   -7.6146   17.4040 C   0  0  0  0  0  0  0  0  0  0  0  0
   -0.9388   -8.7007   18.1465 C   0  0  0  0  0  0  0  0  0  0  0  0
    0.1424   -9.0921   18.9013 N   0  0  0  0  0  0  0  0  0  0  0  0
   -3.2632  -15.7307   18.4568 C   0  0  0  0  0  0  0  0  0  0  0  0
   -6.0957  -16.8066   17.4468 H   0  0  0  0  0  0  0  0  0  0  0  0
   -5.1068  -17.6335   18.5893 H   0  0  0  0  0  0  0  0  0  0  0  0
   -4.9086  -15.2609   16.2895 H   0  0  0  0  0  0  0  0  0  0  0  0
   -5.6471  -13.9833   17.2784 H   0  0  0  0  0  0  0  0  0  0  0  0
   -2.8155  -14.3011   16.3367 H   0  0  0  0  0  0  0  0  0  0  0  0
   -3.6236  -12.8364   16.9353 H   0  0  0  0  0  0  0  0  0  0  0  0
   -3.1840  -13.2409   18.7210 H   0  0  0  0  0  0  0  0  0  0  0  0
   -0.4898  -14.1164   19.8908 H   0  0  0  0  0  0  0  0  0  0  0  0
   -1.8809  -13.5559   21.0021 H   0  0  0  0  0  0  0  0  0  0  0  0
   -0.7312  -11.7725   21.2316 H   0  0  0  0  0  0  0  0  0  0  0  0
    2.0165  -10.9850   20.9600 H   0  0  0  0  0  0  0  0  0  0  0  0
    3.6614   -9.3654   20.2513 H   0  0  0  0  0  0  0  0  0  0  0  0
   -1.1280   -7.0470   16.6976 H   0  0  0  0  0  0  0  0  0  0  0  0
   -1.8826   -9.2213   18.1980 H   0  0  0  0  0  0  0  0  0  0  0  0
   -2.8905  -16.1550   17.5072 H   0  0  0  0  0  0  0  0  0  0  0  0
   -2.9536  -16.5230   19.1275 H   0  0  0  0  0  0  0  0  0  0  0  0
  1  2  1  0
  2  3  1  0
  2  4  1  0
  2  5  1  0
  5  6  1  0
  6  7  1  0
  7  8  1  0
  8  9  1  0
  9 10  1  0
 10 11  1  0
 11 12  1  0
 12 13  2  0
 13 14  1  0
 14 15  2  0
 15 16  1  0
 16 17  2  0
 17 18  1  0
 18 19  2  0
 19 20  1  0
  9 21  1  0
 21  6  1  0
 20 12  1  0
 20 16  1  0
  5 22  1  0
  5 23  1  0
  7 24  1  0
  7 25  1  0
  8 26  1  0
  8 27  1  0
  9 28  1  0
 10 29  1  0
 10 30  1  0
 11 31  1  0
 13 32  1  0
 14 33  1  0
 18 34  1  0
 19 35  1  0
 21 36  1  0
 21 37  1  0
M  END
>  <Energy>  (1351) 
461.49033027731332

>  <compound_id>  (1351) 
8774

>  <target_id>  (1351) 
1

>  <reference_id>  (1351) 
3

>  <inspiration_ids>  (1351) 
[3, 106]

>  <energy_score>  (1351) 
302.81620655914196

>  <distance_score>  (1351) 
14.612059358095584

>  <path>  (1351) 
/opt/xchem-fragalysis-2/maxwin/BulkDock/SCRATCH/511014/C8774-P3/C8774-P3.minimised.mol

>  <scratch_subdir>  (1351) 
/opt/xchem-fragalysis-2/maxwin/BulkDock/SCRATCH/511014/C8774-P3

>  <fragmenstein_runtime>  (1351) 
12.128740549087524

>  <fragmenstein_outcome>  (1351) 
too moved

>  <fragmenstein_mode>  (1351) 
expansion

>  <fragmenstein_error>  (1351) 


$$$$
C8774-P106
     RDKit          3D

 37 39  0  0  0  0  0  0  0  0999 V2000
   -2.1042  -19.4761   27.4311 F   0  0  0  0  0  0  0  0  0  0  0  0
   -1.9197  -18.1744   27.7397 C   0  0  0  0  0  0  0  0  0  0  0  0
   -2.4598  -17.9069   28.9543 F   0  0  0  0  0  0  0  0  0  0  0  0
   -0.5707  -18.0400   27.9031 F   0  0  0  0  0  0  0  0  0  0  0  0
   -2.4339  -17.1518   26.6372 C   0  0  0  0  0  0  0  0  0  0  0  0
   -2.4087  -16.4534   24.9993 N   0  0  0  0  0  0  0  0  0  0  0  0
   -3.1084  -15.3922   24.6450 C   0  0  0  0  0  0  0  0  0  0  0  0
   -1.8781  -14.1412   25.4137 C   0  0  0  0  0  0  0  0  0  0  0  0
   -0.2214  -14.1918   24.3680 C   0  0  0  0  0  0  0  0  0  0  0  0
    1.6633  -13.2694   24.4914 C   0  0  0  0  0  0  0  0  0  0  0  0
    3.2305  -13.7734   23.6492 N   0  0  0  0  0  0  0  0  0  0  0  0
    4.4773  -13.0450   23.0616 C   0  0  0  0  0  0  0  0  0  0  0  0
    4.5938  -12.8293   21.7321 C   0  0  0  0  0  0  0  0  0  0  0  0
    5.7165  -12.0380   21.1383 C   0  0  0  0  0  0  0  0  0  0  0  0
    6.7024  -11.5202   21.7799 N   0  0  0  0  0  0  0  0  0  0  0  0
    6.7437  -11.8790   23.0889 C   0  0  0  0  0  0  0  0  0  0  0  0
    7.6931  -11.5637   23.9431 N   0  0  0  0  0  0  0  0  0  0  0  0
    7.4340  -12.3036   25.0554 C   0  0  0  0  0  0  0  0  0  0  0  0
    6.2798  -13.0414   24.9176 C   0  0  0  0  0  0  0  0  0  0  0  0
    5.7356  -12.6963   23.7056 N   0  0  0  0  0  0  0  0  0  0  0  0
   -1.4118  -15.2551   24.2747 C   0  0  0  0  0  0  0  0  0  0  0  0
   -2.1682  -16.2996   27.2722 H   0  0  0  0  0  0  0  0  0  0  0  0
   -1.7684  -17.8211   26.0731 H   0  0  0  0  0  0  0  0  0  0  0  0
   -3.3450  -15.2050   23.6016 H   0  0  0  0  0  0  0  0  0  0  0  0
   -4.1013  -15.6505   24.8948 H   0  0  0  0  0  0  0  0  0  0  0  0
   -2.3040  -13.1128   25.4717 H   0  0  0  0  0  0  0  0  0  0  0  0
   -1.8975  -14.6235   26.3967 H   0  0  0  0  0  0  0  0  0  0  0  0
   -0.2745  -13.9449   23.3033 H   0  0  0  0  0  0  0  0  0  0  0  0
    1.7653  -13.2873   25.5933 H   0  0  0  0  0  0  0  0  0  0  0  0
    1.7974  -12.2275   24.1417 H   0  0  0  0  0  0  0  0  0  0  0  0
    2.8050  -14.0904   22.7769 H   0  0  0  0  0  0  0  0  0  0  0  0
    3.8571  -13.1793   21.0412 H   0  0  0  0  0  0  0  0  0  0  0  0
    5.6432  -11.8691   20.0509 H   0  0  0  0  0  0  0  0  0  0  0  0
    8.1009  -12.2860   25.9079 H   0  0  0  0  0  0  0  0  0  0  0  0
    5.7861  -13.7467   25.5699 H   0  0  0  0  0  0  0  0  0  0  0  0
   -0.8733  -15.9742   24.5265 H   0  0  0  0  0  0  0  0  0  0  0  0
   -1.5621  -15.1266   23.2299 H   0  0  0  0  0  0  0  0  0  0  0  0
  1  2  1  0
  2  3  1  0
  2  4  1  0
  2  5  1  0
  5  6  1  0
  6  7  1  0
  7  8  1  0
  8  9  1  0
  9 10  1  0
 10 11  1  0
 11 12  1  0
 12 13  2  0
 13 14  1  0
 14 15  2  0
 15 16  1  0
 16 17  2  0
 17 18  1  0
 18 19  2  0
 19 20  1  0
  9 21  1  0
 21  6  1  0
 20 12  1  0
 20 16  1  0
  5 22  1  0
  5 23  1  0
  7 24  1  0
  7 25  1  0
  8 26  1  0
  8 27  1  0
  9 28  1  0
 10 29  1  0
 10 30  1  0
 11 31  1  0
 13 32  1  0
 14 33  1  0
 18 34  1  0
 19 35  1  0
 21 36  1  0
 21 37  1  0
M  END
>  <Energy>  (1352) 
794.06046720088636

>  <compound_id>  (1352) 
8774

>  <target_id>  (1352) 
1

>  <reference_id>  (1352) 
106

>  <inspiration_ids>  (1352) 
[3, 106]

>  <energy_score>  (1352) 
635.3863434827107

>  <distance_score>  (1352) 
14.01094079701807

>  <path>  (1352) 
/opt/xchem-fragalysis-2/maxwin/BulkDock/SCRATCH/511014/C8774-P106/C8774-P106.minimised.mol

>  <scratch_subdir>  (1352) 
/opt/xchem-fragalysis-2/maxwin/BulkDock/SCRATCH/511014/C8774-P106

>  <fragmenstein_runtime>  (1352) 
15.326154947280884

>  <fragmenstein_outcome>  (1352) 
too moved

>  <fragmenstein_mode>  (1352) 
expansion

>  <fragmenstein_error>  (1352) 


$$$$
C8775-P106
     RDKit          2D

  0  0  0  0  0  0  0  0  0  0999 V2000
M  END
>  <compound_id>  (1353) 
8775

>  <target_id>  (1353) 
1

>  <reference_id>  (1353) 
106

>  <inspiration_ids>  (1353) 
[3, 106]

>  <energy_score>  (1353) 
nan

>  <distance_score>  (1353) 
nan

>  <path>  (1353) 
/opt/xchem-fragalysis-2/maxwin/BulkDock/SCRATCH/511014/C8775-P106/C8775-P106.minimised.mol

>  <scratch_subdir>  (1353) 
/opt/xchem-fragalysis-2/maxwin/BulkDock/SCRATCH/511014/C8775-P106

>  <fragmenstein_runtime>  (1353) 
0.7997748851776123

>  <fragmenstein_outcome>  (1353) 
too distant

>  <fragmenstein_mode>  (1353) 
expansion

>  <fragmenstein_error>  (1353) 
DistanceError: hit0

$$$$
C8776-P3
     RDKit          3D

 49 52  0  0  0  0  0  0  0  0999 V2000
   -4.8515  -18.9546   15.3727 C   0  0  0  0  0  0  0  0  0  0  0  0
   -4.3555  -17.5091   15.5825 C   0  0  0  0  0  0  0  0  0  0  0  0
   -3.5676  -17.5007   16.9155 C   0  0  0  0  0  0  0  0  0  0  0  0
   -3.7205  -16.8757   14.3404 N   0  0  0  0  0  0  0  0  0  0  0  0
   -3.5652  -15.4084   14.3956 C   0  0  0  0  0  0  0  0  0  0  0  0
   -2.7020  -14.6001   13.3641 C   0  0  0  0  0  0  0  0  0  0  0  0
   -1.3195  -15.0982   13.3034 N   0  0  0  0  0  0  0  0  0  0  0  0
   -0.2345  -14.1597   12.7674 C   0  0  0  0  0  0  0  0  0  0  0  0
    1.1474  -14.7860   12.5225 C   0  0  0  0  0  0  0  0  0  0  0  0
    2.1178  -13.5987   12.2545 C   0  0  0  0  0  0  0  0  0  0  0  0
    1.6947  -12.4499   13.1032 N   0  0  0  0  0  0  0  0  0  0  0  0
    2.7066  -11.6590   13.8245 C   0  0  0  0  0  0  0  0  0  0  0  0
    3.3188  -12.0718   14.9561 C   0  0  0  0  0  0  0  0  0  0  0  0
    4.3354  -11.1757   15.5985 C   0  0  0  0  0  0  0  0  0  0  0  0
    4.7537  -10.0299   15.1643 N   0  0  0  0  0  0  0  0  0  0  0  0
    4.1910   -9.6231   13.9929 C   0  0  0  0  0  0  0  0  0  0  0  0
    4.4570   -8.5153   13.3264 N   0  0  0  0  0  0  0  0  0  0  0  0
    3.6723   -8.5571   12.2114 C   0  0  0  0  0  0  0  0  0  0  0  0
    2.8919   -9.6905   12.1936 C   0  0  0  0  0  0  0  0  0  0  0  0
    3.2026  -10.3973   13.3325 N   0  0  0  0  0  0  0  0  0  0  0  0
    0.3247  -12.8963   13.6671 C   0  0  0  0  0  0  0  0  0  0  0  0
   -1.4496  -16.5382   12.9077 C   0  0  0  0  0  0  0  0  0  0  0  0
   -2.5300  -17.4973   13.7255 C   0  0  0  0  0  0  0  0  0  0  0  0
   -4.0132  -19.6429   15.2228 H   0  0  0  0  0  0  0  0  0  0  0  0
   -5.4350  -19.3026   16.2318 H   0  0  0  0  0  0  0  0  0  0  0  0
   -5.4967  -19.0109   14.4893 H   0  0  0  0  0  0  0  0  0  0  0  0
   -5.2712  -16.9283   15.7541 H   0  0  0  0  0  0  0  0  0  0  0  0
   -3.2749  -16.4964   17.2246 H   0  0  0  0  0  0  0  0  0  0  0  0
   -4.1628  -17.9330   17.7266 H   0  0  0  0  0  0  0  0  0  0  0  0
   -2.6471  -18.0796   16.8197 H   0  0  0  0  0  0  0  0  0  0  0  0
   -4.5659  -14.9641   14.3636 H   0  0  0  0  0  0  0  0  0  0  0  0
   -3.0561  -15.1596   15.3245 H   0  0  0  0  0  0  0  0  0  0  0  0
   -3.1704  -14.6352   12.3728 H   0  0  0  0  0  0  0  0  0  0  0  0
   -2.6972  -13.5513   13.6847 H   0  0  0  0  0  0  0  0  0  0  0  0
   -0.5946  -13.7513   11.8138 H   0  0  0  0  0  0  0  0  0  0  0  0
    1.1452  -15.4871   11.6821 H   0  0  0  0  0  0  0  0  0  0  0  0
    1.4823  -15.3272   13.4161 H   0  0  0  0  0  0  0  0  0  0  0  0
    2.0488  -13.2914   11.2051 H   0  0  0  0  0  0  0  0  0  0  0  0
    3.1510  -13.9001   12.4586 H   0  0  0  0  0  0  0  0  0  0  0  0
    3.1035  -13.0132   15.4438 H   0  0  0  0  0  0  0  0  0  0  0  0
    4.7488  -11.5651   16.5446 H   0  0  0  0  0  0  0  0  0  0  0  0
    3.7044   -7.7659   11.4735 H   0  0  0  0  0  0  0  0  0  0  0  0
    2.1597  -10.0606   11.4919 H   0  0  0  0  0  0  0  0  0  0  0  0
    0.4709  -13.2149   14.7005 H   0  0  0  0  0  0  0  0  0  0  0  0
   -0.3820  -12.0623   13.6309 H   0  0  0  0  0  0  0  0  0  0  0  0
   -1.7323  -16.5743   11.8475 H   0  0  0  0  0  0  0  0  0  0  0  0
   -0.4737  -17.0284   12.9969 H   0  0  0  0  0  0  0  0  0  0  0  0
   -1.9648  -18.0747   14.4665 H   0  0  0  0  0  0  0  0  0  0  0  0
   -2.8833  -18.2404   12.9995 H   0  0  0  0  0  0  0  0  0  0  0  0
  1  2  1  0
  2  3  1  0
  2  4  1  0
  4  5  1  0
  5  6  1  0
  6  7  1  0
  7  8  1  0
  8  9  1  0
  9 10  1  0
 10 11  1  0
 11 12  1  0
 12 13  2  0
 13 14  1  0
 14 15  2  0
 15 16  1  0
 16 17  2  0
 17 18  1  0
 18 19  2  0
 19 20  1  0
 11 21  1  0
  7 22  1  0
 22 23  1  0
 23  4  1  0
 21  8  1  0
 20 12  1  0
 20 16  1  0
  1 24  1  0
  1 25  1  0
  1 26  1  0
  2 27  1  0
  3 28  1  0
  3 29  1  0
  3 30  1  0
  5 31  1  0
  5 32  1  0
  6 33  1  0
  6 34  1  0
  8 35  1  0
  9 36  1  0
  9 37  1  0
 10 38  1  0
 10 39  1  0
 13 40  1  0
 14 41  1  0
 18 42  1  0
 19 43  1  0
 21 44  1  0
 21 45  1  0
 22 46  1  0
 22 47  1  0
 23 48  1  0
 23 49  1  0
M  END
>  <Energy>  (1354) 
189.68530279356

>  <compound_id>  (1354) 
8776

>  <target_id>  (1354) 
1

>  <reference_id>  (1354) 
3

>  <inspiration_ids>  (1354) 
[3, 106]

>  <energy_score>  (1354) 
-24.386393859630743

>  <distance_score>  (1354) 
15.473750681519597

>  <path>  (1354) 
/opt/xchem-fragalysis-2/maxwin/BulkDock/SCRATCH/511014/C8776-P3/C8776-P3.minimised.mol

>  <scratch_subdir>  (1354) 
/opt/xchem-fragalysis-2/maxwin/BulkDock/SCRATCH/511014/C8776-P3

>  <fragmenstein_runtime>  (1354) 
26.99296259880066

>  <fragmenstein_outcome>  (1354) 
too moved

>  <fragmenstein_mode>  (1354) 
expansion

>  <fragmenstein_error>  (1354) 


$$$$
C8776-P106
     RDKit          3D

 49 52  0  0  0  0  0  0  0  0999 V2000
   -5.1372  -24.5039   22.9627 C   0  0  0  0  0  0  0  0  0  0  0  0
   -4.8534  -23.4048   21.9494 C   0  0  0  0  0  0  0  0  0  0  0  0
   -6.1584  -22.6465   21.6485 C   0  0  0  0  0  0  0  0  0  0  0  0
   -3.7833  -22.4855   22.3416 N   0  0  0  0  0  0  0  0  0  0  0  0
   -3.8389  -22.0251   23.6994 C   0  0  0  0  0  0  0  0  0  0  0  0
   -2.9354  -20.7563   23.9359 C   0  0  0  0  0  0  0  0  0  0  0  0
   -1.6690  -20.1673   22.8868 N   0  0  0  0  0  0  0  0  0  0  0  0
   -1.2664  -18.7889   21.4368 C   0  0  0  0  0  0  0  0  0  0  0  0
   -2.1742  -18.3382   20.0634 C   0  0  0  0  0  0  0  0  0  0  0  0
   -1.4186  -17.9779   18.7754 C   0  0  0  0  0  0  0  0  0  0  0  0
    0.3201  -17.8229   18.9049 N   0  0  0  0  0  0  0  0  0  0  0  0
    1.4405  -18.1559   17.5921 C   0  0  0  0  0  0  0  0  0  0  0  0
    1.9307  -19.4070   17.4049 C   0  0  0  0  0  0  0  0  0  0  0  0
    2.6534  -19.8276   16.1762 C   0  0  0  0  0  0  0  0  0  0  0  0
    2.9966  -19.1511   15.1356 N   0  0  0  0  0  0  0  0  0  0  0  0
    2.7048  -17.8367   15.1494 C   0  0  0  0  0  0  0  0  0  0  0  0
    3.1174  -16.9747   14.2333 N   0  0  0  0  0  0  0  0  0  0  0  0
    2.8987  -15.7348   14.7092 C   0  0  0  0  0  0  0  0  0  0  0  0
    2.3561  -15.8201   15.9581 C   0  0  0  0  0  0  0  0  0  0  0  0
    2.0315  -17.2347   16.2609 N   0  0  0  0  0  0  0  0  0  0  0  0
    0.0459  -17.6879   20.6371 C   0  0  0  0  0  0  0  0  0  0  0  0
   -1.3651  -21.9340   22.8437 C   0  0  0  0  0  0  0  0  0  0  0  0
   -2.4063  -22.8411   22.0428 C   0  0  0  0  0  0  0  0  0  0  0  0
   -4.2106  -25.0034   23.2628 H   0  0  0  0  0  0  0  0  0  0  0  0
   -5.7752  -25.2599   22.4983 H   0  0  0  0  0  0  0  0  0  0  0  0
   -5.6398  -24.1142   23.8513 H   0  0  0  0  0  0  0  0  0  0  0  0
   -4.5542  -23.8824   21.0070 H   0  0  0  0  0  0  0  0  0  0  0  0
   -5.9921  -21.9012   20.8623 H   0  0  0  0  0  0  0  0  0  0  0  0
   -6.9254  -23.3382   21.2823 H   0  0  0  0  0  0  0  0  0  0  0  0
   -6.5686  -22.1274   22.5120 H   0  0  0  0  0  0  0  0  0  0  0  0
   -4.8479  -21.7582   23.9623 H   0  0  0  0  0  0  0  0  0  0  0  0
   -3.5519  -22.8195   24.4040 H   0  0  0  0  0  0  0  0  0  0  0  0
   -3.4935  -20.1073   24.6230 H   0  0  0  0  0  0  0  0  0  0  0  0
   -2.3908  -21.1297   24.7897 H   0  0  0  0  0  0  0  0  0  0  0  0
   -0.7223  -18.3069   22.1527 H   0  0  0  0  0  0  0  0  0  0  0  0
   -2.7619  -17.4420   20.2840 H   0  0  0  0  0  0  0  0  0  0  0  0
   -2.8732  -19.1318   19.7485 H   0  0  0  0  0  0  0  0  0  0  0  0
   -1.6621  -18.5948   17.9173 H   0  0  0  0  0  0  0  0  0  0  0  0
   -1.8423  -16.9659   18.7513 H   0  0  0  0  0  0  0  0  0  0  0  0
    1.9429  -20.1623   18.1716 H   0  0  0  0  0  0  0  0  0  0  0  0
    2.9148  -20.9005   16.1743 H   0  0  0  0  0  0  0  0  0  0  0  0
    3.2098  -14.8491   14.1722 H   0  0  0  0  0  0  0  0  0  0  0  0
    2.2619  -15.0203   16.6811 H   0  0  0  0  0  0  0  0  0  0  0  0
    0.8194  -18.1377   21.1725 H   0  0  0  0  0  0  0  0  0  0  0  0
   -0.1502  -16.6424   20.8299 H   0  0  0  0  0  0  0  0  0  0  0  0
   -0.3302  -22.2213   22.6657 H   0  0  0  0  0  0  0  0  0  0  0  0
   -1.3744  -22.3227   23.8665 H   0  0  0  0  0  0  0  0  0  0  0  0
   -2.2068  -23.8818   22.3284 H   0  0  0  0  0  0  0  0  0  0  0  0
   -2.2300  -22.7659   20.9651 H   0  0  0  0  0  0  0  0  0  0  0  0
  1  2  1  0
  2  3  1  0
  2  4  1  0
  4  5  1  0
  5  6  1  0
  6  7  1  0
  7  8  1  0
  8  9  1  0
  9 10  1  0
 10 11  1  0
 11 12  1  0
 12 13  2  0
 13 14  1  0
 14 15  2  0
 15 16  1  0
 16 17  2  0
 17 18  1  0
 18 19  2  0
 19 20  1  0
 11 21  1  0
  7 22  1  0
 22 23  1  0
 23  4  1  0
 21  8  1  0
 20 12  1  0
 20 16  1  0
  1 24  1  0
  1 25  1  0
  1 26  1  0
  2 27  1  0
  3 28  1  0
  3 29  1  0
  3 30  1  0
  5 31  1  0
  5 32  1  0
  6 33  1  0
  6 34  1  0
  8 35  1  0
  9 36  1  0
  9 37  1  0
 10 38  1  0
 10 39  1  0
 13 40  1  0
 14 41  1  0
 18 42  1  0
 19 43  1  0
 21 44  1  0
 21 45  1  0
 22 46  1  0
 22 47  1  0
 23 48  1  0
 23 49  1  0
M  END
>  <Energy>  (1355) 
718.38217776755664

>  <compound_id>  (1355) 
8776

>  <target_id>  (1355) 
1

>  <reference_id>  (1355) 
106

>  <inspiration_ids>  (1355) 
[3, 106]

>  <energy_score>  (1355) 
504.3104811143578

>  <distance_score>  (1355) 
16.770793274795256

>  <path>  (1355) 
/opt/xchem-fragalysis-2/maxwin/BulkDock/SCRATCH/511014/C8776-P106/C8776-P106.minimised.mol

>  <scratch_subdir>  (1355) 
/opt/xchem-fragalysis-2/maxwin/BulkDock/SCRATCH/511014/C8776-P106

>  <fragmenstein_runtime>  (1355) 
30.180086374282837

>  <fragmenstein_outcome>  (1355) 
too moved

>  <fragmenstein_mode>  (1355) 
expansion

>  <fragmenstein_error>  (1355) 


$$$$
C8777-P106
     RDKit          2D

  0  0  0  0  0  0  0  0  0  0999 V2000
M  END
>  <compound_id>  (1356) 
8777

>  <target_id>  (1356) 
1

>  <reference_id>  (1356) 
106

>  <inspiration_ids>  (1356) 
[3, 106]

>  <energy_score>  (1356) 
nan

>  <distance_score>  (1356) 
nan

>  <path>  (1356) 
/opt/xchem-fragalysis-2/maxwin/BulkDock/SCRATCH/511014/C8777-P106/C8777-P106.minimised.mol

>  <scratch_subdir>  (1356) 
/opt/xchem-fragalysis-2/maxwin/BulkDock/SCRATCH/511014/C8777-P106

>  <fragmenstein_runtime>  (1356) 
0.389209508895874

>  <fragmenstein_outcome>  (1356) 
too distant

>  <fragmenstein_mode>  (1356) 
expansion

>  <fragmenstein_error>  (1356) 
DistanceError: hit1

$$$$
C8778-P3
     RDKit          3D

 38 41  0  0  0  0  0  0  0  0999 V2000
  -11.1610  -21.2075   22.2840 C   0  0  0  0  0  0  0  0  0  0  0  0
  -11.2054  -20.4028   23.3696 C   0  0  0  0  0  0  0  0  0  0  0  0
  -12.1321  -20.6130   24.3879 C   0  0  0  0  0  0  0  0  0  0  0  0
  -12.8020  -21.8001   24.4727 C   0  0  0  0  0  0  0  0  0  0  0  0
  -13.2376  -22.4056   25.8020 C   0  0  0  0  0  0  0  0  0  0  0  0
  -12.0388  -22.4402   26.7616 C   0  0  0  0  0  0  0  0  0  0  0  0
  -11.6996  -21.0697   27.3136 C   0  0  0  0  0  0  0  0  0  0  0  0
  -10.4984  -21.4467   28.1136 C   0  0  0  0  0  0  0  0  0  0  0  0
  -11.0241  -22.4996   28.9721 N   0  0  0  0  0  0  0  0  0  0  0  0
  -11.0944  -22.0586   30.3122 C   0  0  0  0  0  0  0  0  0  0  0  0
  -11.5637  -20.8449   30.6669 C   0  0  0  0  0  0  0  0  0  0  0  0
  -11.2885  -20.3275   32.0341 C   0  0  0  0  0  0  0  0  0  0  0  0
  -10.4424  -20.8325   32.8621 N   0  0  0  0  0  0  0  0  0  0  0  0
   -9.8364  -21.9636   32.4270 C   0  0  0  0  0  0  0  0  0  0  0  0
   -8.7920  -22.5543   32.9484 N   0  0  0  0  0  0  0  0  0  0  0  0
   -8.5907  -23.6770   32.2063 C   0  0  0  0  0  0  0  0  0  0  0  0
   -9.5219  -23.7810   31.2132 C   0  0  0  0  0  0  0  0  0  0  0  0
  -10.2324  -22.6225   31.2597 N   0  0  0  0  0  0  0  0  0  0  0  0
  -12.0370  -23.2284   28.1146 C   0  0  0  0  0  0  0  0  0  0  0  0
  -12.8866  -22.5201   23.3669 N   0  0  0  0  0  0  0  0  0  0  0  0
  -12.1139  -22.1584   22.2892 C   0  0  0  0  0  0  0  0  0  0  0  0
  -10.5063  -21.0793   21.4373 H   0  0  0  0  0  0  0  0  0  0  0  0
  -10.5268  -19.5765   23.3955 H   0  0  0  0  0  0  0  0  0  0  0  0
  -12.2545  -19.8715   25.1460 H   0  0  0  0  0  0  0  0  0  0  0  0
  -13.5979  -23.4263   25.6308 H   0  0  0  0  0  0  0  0  0  0  0  0
  -14.0660  -21.8292   26.2015 H   0  0  0  0  0  0  0  0  0  0  0  0
  -11.1864  -22.8317   26.1820 H   0  0  0  0  0  0  0  0  0  0  0  0
  -11.4190  -20.2618   26.6737 H   0  0  0  0  0  0  0  0  0  0  0  0
  -12.5156  -20.6753   27.9155 H   0  0  0  0  0  0  0  0  0  0  0  0
   -9.7202  -21.8882   27.5010 H   0  0  0  0  0  0  0  0  0  0  0  0
  -10.0705  -20.5816   28.6230 H   0  0  0  0  0  0  0  0  0  0  0  0
  -12.0024  -20.1349   29.9921 H   0  0  0  0  0  0  0  0  0  0  0  0
  -11.8427  -19.4160   32.3129 H   0  0  0  0  0  0  0  0  0  0  0  0
   -7.7906  -24.3685   32.4294 H   0  0  0  0  0  0  0  0  0  0  0  0
   -9.6929  -24.5248   30.4599 H   0  0  0  0  0  0  0  0  0  0  0  0
  -13.0156  -23.2860   28.5793 H   0  0  0  0  0  0  0  0  0  0  0  0
  -11.6910  -24.2543   27.9496 H   0  0  0  0  0  0  0  0  0  0  0  0
  -12.2699  -22.6982   21.3587 H   0  0  0  0  0  0  0  0  0  0  0  0
  1  2  2  0
  2  3  1  0
  3  4  2  0
  4  5  1  0
  5  6  1  0
  6  7  1  0
  7  8  1  0
  8  9  1  0
  9 10  1  0
 10 11  2  0
 11 12  1  0
 12 13  2  0
 13 14  1  0
 14 15  2  0
 15 16  1  0
 16 17  2  0
 17 18  1  0
  9 19  1  0
  4 20  1  0
 20 21  2  0
 21  1  1  0
 19  6  1  0
 18 10  1  0
 18 14  1  0
  1 22  1  0
  2 23  1  0
  3 24  1  0
  5 25  1  0
  5 26  1  0
  6 27  1  0
  7 28  1  0
  7 29  1  0
  8 30  1  0
  8 31  1  0
 11 32  1  0
 12 33  1  0
 16 34  1  0
 17 35  1  0
 19 36  1  0
 19 37  1  0
 21 38  1  0
M  END
>  <Energy>  (1357) 
126.06840241866111

>  <compound_id>  (1357) 
8778

>  <target_id>  (1357) 
1

>  <reference_id>  (1357) 
3

>  <inspiration_ids>  (1357) 
[3, 106]

>  <energy_score>  (1357) 
21.59241302029318

>  <distance_score>  (1357) 
1.8011640038378285

>  <path>  (1357) 
/opt/xchem-fragalysis-2/maxwin/BulkDock/SCRATCH/511014/C8778-P3/C8778-P3.minimised.mol

>  <scratch_subdir>  (1357) 
/opt/xchem-fragalysis-2/maxwin/BulkDock/SCRATCH/511014/C8778-P3

>  <fragmenstein_runtime>  (1357) 
4.56477427482605

>  <fragmenstein_outcome>  (1357) 
too moved

>  <fragmenstein_mode>  (1357) 
expansion

>  <fragmenstein_error>  (1357) 


$$$$
C8778-P106
     RDKit          3D

 38 41  0  0  0  0  0  0  0  0999 V2000
  -17.0041  -26.2830   25.9967 C   0  0  0  0  0  0  0  0  0  0  0  0
  -16.3232  -25.5050   25.0700 C   0  0  0  0  0  0  0  0  0  0  0  0
  -14.9427  -25.3504   25.1787 C   0  0  0  0  0  0  0  0  0  0  0  0
  -14.2777  -25.9894   26.2187 C   0  0  0  0  0  0  0  0  0  0  0  0
  -12.7721  -25.9671   26.3180 C   0  0  0  0  0  0  0  0  0  0  0  0
  -12.1123  -24.9404   27.2113 C   0  0  0  0  0  0  0  0  0  0  0  0
  -11.9664  -23.5414   26.6722 C   0  0  0  0  0  0  0  0  0  0  0  0
  -11.5630  -22.7838   27.9404 C   0  0  0  0  0  0  0  0  0  0  0  0
  -12.3578  -23.4269   28.9969 N   0  0  0  0  0  0  0  0  0  0  0  0
  -12.1745  -23.1886   30.3581 C   0  0  0  0  0  0  0  0  0  0  0  0
  -13.0340  -22.4319   31.0524 C   0  0  0  0  0  0  0  0  0  0  0  0
  -12.6877  -22.1172   32.4580 C   0  0  0  0  0  0  0  0  0  0  0  0
  -11.6422  -22.5234   33.0876 N   0  0  0  0  0  0  0  0  0  0  0  0
  -10.8757  -23.4251   32.4235 C   0  0  0  0  0  0  0  0  0  0  0  0
   -9.8150  -24.0607   32.8707 N   0  0  0  0  0  0  0  0  0  0  0  0
   -9.4799  -24.9610   31.9141 C   0  0  0  0  0  0  0  0  0  0  0  0
  -10.2821  -24.8133   30.8127 C   0  0  0  0  0  0  0  0  0  0  0  0
  -11.1523  -23.7926   31.1080 N   0  0  0  0  0  0  0  0  0  0  0  0
  -12.8202  -24.7294   28.5345 C   0  0  0  0  0  0  0  0  0  0  0  0
  -14.9388  -26.7203   27.1570 N   0  0  0  0  0  0  0  0  0  0  0  0
  -16.2763  -26.8602   27.0182 C   0  0  0  0  0  0  0  0  0  0  0  0
  -18.0776  -26.4207   25.9316 H   0  0  0  0  0  0  0  0  0  0  0  0
  -16.8728  -25.0274   24.2654 H   0  0  0  0  0  0  0  0  0  0  0  0
  -14.4047  -24.7500   24.4546 H   0  0  0  0  0  0  0  0  0  0  0  0
  -12.3256  -25.9552   25.3176 H   0  0  0  0  0  0  0  0  0  0  0  0
  -12.4792  -26.9150   26.7723 H   0  0  0  0  0  0  0  0  0  0  0  0
  -11.0937  -25.3056   27.4172 H   0  0  0  0  0  0  0  0  0  0  0  0
  -11.2219  -23.5183   25.8808 H   0  0  0  0  0  0  0  0  0  0  0  0
  -12.9095  -23.2013   26.2561 H   0  0  0  0  0  0  0  0  0  0  0  0
  -10.4984  -22.9306   28.1464 H   0  0  0  0  0  0  0  0  0  0  0  0
  -11.7656  -21.7159   27.8740 H   0  0  0  0  0  0  0  0  0  0  0  0
  -13.9507  -22.0316   30.6621 H   0  0  0  0  0  0  0  0  0  0  0  0
  -13.3912  -21.4445   32.9741 H   0  0  0  0  0  0  0  0  0  0  0  0
   -8.6638  -25.6565   32.0530 H   0  0  0  0  0  0  0  0  0  0  0  0
  -10.2977  -25.3291   29.8670 H   0  0  0  0  0  0  0  0  0  0  0  0
  -13.9030  -24.6564   28.4302 H   0  0  0  0  0  0  0  0  0  0  0  0
  -12.5815  -25.5410   29.2273 H   0  0  0  0  0  0  0  0  0  0  0  0
  -16.7617  -27.4684   27.7769 H   0  0  0  0  0  0  0  0  0  0  0  0
  1  2  2  0
  2  3  1  0
  3  4  2  0
  4  5  1  0
  5  6  1  0
  6  7  1  0
  7  8  1  0
  8  9  1  0
  9 10  1  0
 10 11  2  0
 11 12  1  0
 12 13  2  0
 13 14  1  0
 14 15  2  0
 15 16  1  0
 16 17  2  0
 17 18  1  0
  9 19  1  0
  4 20  1  0
 20 21  2  0
 21  1  1  0
 19  6  1  0
 18 10  1  0
 18 14  1  0
  1 22  1  0
  2 23  1  0
  3 24  1  0
  5 25  1  0
  5 26  1  0
  6 27  1  0
  7 28  1  0
  7 29  1  0
  8 30  1  0
  8 31  1  0
 11 32  1  0
 12 33  1  0
 16 34  1  0
 17 35  1  0
 19 36  1  0
 19 37  1  0
 21 38  1  0
M  END
>  <Energy>  (1358) 
78.856839373529368

>  <compound_id>  (1358) 
8778

>  <target_id>  (1358) 
1

>  <reference_id>  (1358) 
106

>  <inspiration_ids>  (1358) 
[3, 106]

>  <energy_score>  (1358) 
-25.61915002484392

>  <distance_score>  (1358) 
2.360686619670526

>  <path>  (1358) 
/opt/xchem-fragalysis-2/maxwin/BulkDock/SCRATCH/511014/C8778-P106/C8778-P106.minimised.mol

>  <scratch_subdir>  (1358) 
/opt/xchem-fragalysis-2/maxwin/BulkDock/SCRATCH/511014/C8778-P106

>  <fragmenstein_runtime>  (1358) 
5.265571117401123

>  <fragmenstein_outcome>  (1358) 
too moved

>  <fragmenstein_mode>  (1358) 
expansion

>  <fragmenstein_error>  (1358) 


$$$$
C8779-P3
     RDKit          3D

 39 42  0  0  0  0  0  0  0  0999 V2000
   14.0972   -0.2712   17.7873 C   0  0  0  0  0  0  0  0  0  0  0  0
   14.5941   -1.4701   18.2622 C   0  0  0  0  0  0  0  0  0  0  0  0
   14.1767   -2.6866   17.8395 N   0  0  0  0  0  0  0  0  0  0  0  0
   13.2186   -2.7077   16.8920 C   0  0  0  0  0  0  0  0  0  0  0  0
   12.6838   -1.5678   16.3167 C   0  0  0  0  0  0  0  0  0  0  0  0
   11.7058   -1.6738   15.1922 C   0  0  0  0  0  0  0  0  0  0  0  0
   12.0130   -0.6571   14.2447 O   0  0  0  0  0  0  0  0  0  0  0  0
   12.7018   -1.1065   13.0701 C   0  0  0  0  0  0  0  0  0  0  0  0
   13.0417    0.1279   12.2565 C   0  0  0  0  0  0  0  0  0  0  0  0
   14.2504    0.6849   13.0112 C   0  0  0  0  0  0  0  0  0  0  0  0
   14.9806   -0.4869   13.5201 N   0  0  0  0  0  0  0  0  0  0  0  0
   16.0653   -0.4792   14.4340 C   0  0  0  0  0  0  0  0  0  0  0  0
   16.5669   -1.6342   14.9246 C   0  0  0  0  0  0  0  0  0  0  0  0
   17.6499   -1.5591   15.9292 C   0  0  0  0  0  0  0  0  0  0  0  0
   18.2044   -0.4852   16.3829 N   0  0  0  0  0  0  0  0  0  0  0  0
   17.7308    0.6825   15.8668 C   0  0  0  0  0  0  0  0  0  0  0  0
   18.1393    1.8993   16.1671 N   0  0  0  0  0  0  0  0  0  0  0  0
   17.4019    2.7439   15.3986 C   0  0  0  0  0  0  0  0  0  0  0  0
   16.5205    2.0463   14.6125 C   0  0  0  0  0  0  0  0  0  0  0  0
   16.6958    0.7113   14.9095 N   0  0  0  0  0  0  0  0  0  0  0  0
   14.1095   -1.6732   13.3194 C   0  0  0  0  0  0  0  0  0  0  0  0
   13.1188   -0.3247   16.8050 C   0  0  0  0  0  0  0  0  0  0  0  0
   14.4661    0.6755   18.1643 H   0  0  0  0  0  0  0  0  0  0  0  0
   15.3677   -1.4850   19.0253 H   0  0  0  0  0  0  0  0  0  0  0  0
   12.9083   -3.7007   16.5820 H   0  0  0  0  0  0  0  0  0  0  0  0
   11.7166   -2.6648   14.7222 H   0  0  0  0  0  0  0  0  0  0  0  0
   10.7036   -1.5171   15.5893 H   0  0  0  0  0  0  0  0  0  0  0  0
   12.0589   -1.8012   12.5198 H   0  0  0  0  0  0  0  0  0  0  0  0
   13.3295   -0.1504   11.2358 H   0  0  0  0  0  0  0  0  0  0  0  0
   12.2303    0.8606   12.2104 H   0  0  0  0  0  0  0  0  0  0  0  0
   13.8993    1.3066   13.8425 H   0  0  0  0  0  0  0  0  0  0  0  0
   14.8680    1.2756   12.3282 H   0  0  0  0  0  0  0  0  0  0  0  0
   16.2216   -2.6222   14.6641 H   0  0  0  0  0  0  0  0  0  0  0  0
   17.9936   -2.5337   16.3142 H   0  0  0  0  0  0  0  0  0  0  0  0
   17.5463    3.8155   15.4426 H   0  0  0  0  0  0  0  0  0  0  0  0
   15.8175    2.4096   13.8879 H   0  0  0  0  0  0  0  0  0  0  0  0
   14.1194   -2.3607   14.1650 H   0  0  0  0  0  0  0  0  0  0  0  0
   14.4651   -2.2121   12.4331 H   0  0  0  0  0  0  0  0  0  0  0  0
   12.7061    0.5957   16.3971 H   0  0  0  0  0  0  0  0  0  0  0  0
  1  2  2  0
  2  3  1  0
  3  4  2  0
  4  5  1  0
  5  6  1  0
  6  7  1  0
  7  8  1  0
  8  9  1  0
  9 10  1  0
 10 11  1  0
 11 12  1  0
 12 13  2  0
 13 14  1  0
 14 15  2  0
 15 16  1  0
 16 17  2  0
 17 18  1  0
 18 19  2  0
 19 20  1  0
 11 21  1  0
  5 22  2  0
 22  1  1  0
 21  8  1  0
 20 12  1  0
 20 16  1  0
  1 23  1  0
  2 24  1  0
  4 25  1  0
  6 26  1  0
  6 27  1  0
  8 28  1  0
  9 29  1  0
  9 30  1  0
 10 31  1  0
 10 32  1  0
 13 33  1  0
 14 34  1  0
 18 35  1  0
 19 36  1  0
 21 37  1  0
 21 38  1  0
 22 39  1  0
M  END
>  <Energy>  (1359) 
95.062896223370856

>  <compound_id>  (1359) 
8779

>  <target_id>  (1359) 
1

>  <reference_id>  (1359) 
3

>  <inspiration_ids>  (1359) 
[3, 106]

>  <energy_score>  (1359) 
-41.36062011932535

>  <distance_score>  (1359) 
1.5998886982920857

>  <path>  (1359) 
/opt/xchem-fragalysis-2/maxwin/BulkDock/SCRATCH/511014/C8779-P3/C8779-P3.minimised.mol

>  <scratch_subdir>  (1359) 
/opt/xchem-fragalysis-2/maxwin/BulkDock/SCRATCH/511014/C8779-P3

>  <fragmenstein_runtime>  (1359) 
2.265127420425415

>  <fragmenstein_outcome>  (1359) 
too moved

>  <fragmenstein_mode>  (1359) 
expansion

>  <fragmenstein_error>  (1359) 


$$$$
C8779-P106
     RDKit          3D

 39 42  0  0  0  0  0  0  0  0999 V2000
   14.3650   -0.3443   17.8474 C   0  0  0  0  0  0  0  0  0  0  0  0
   14.6608   -1.6314   18.2503 C   0  0  0  0  0  0  0  0  0  0  0  0
   14.0701   -2.7372   17.7425 N   0  0  0  0  0  0  0  0  0  0  0  0
   13.1487   -2.5678   16.7737 C   0  0  0  0  0  0  0  0  0  0  0  0
   12.8047   -1.3224   16.2735 C   0  0  0  0  0  0  0  0  0  0  0  0
   11.9066   -1.1880   15.0875 C   0  0  0  0  0  0  0  0  0  0  0  0
   12.4566   -0.1842   14.2384 O   0  0  0  0  0  0  0  0  0  0  0  0
   13.4133   -0.6602   13.2773 C   0  0  0  0  0  0  0  0  0  0  0  0
   13.7351    0.5138   12.3642 C   0  0  0  0  0  0  0  0  0  0  0  0
   14.7391    1.3128   13.1962 C   0  0  0  0  0  0  0  0  0  0  0  0
   15.5159    0.3080   13.9249 N   0  0  0  0  0  0  0  0  0  0  0  0
   16.7311    0.4791   14.6181 C   0  0  0  0  0  0  0  0  0  0  0  0
   17.4675   -0.5873   14.9989 C   0  0  0  0  0  0  0  0  0  0  0  0
   18.7392   -0.3349   15.7115 C   0  0  0  0  0  0  0  0  0  0  0  0
   19.2348    0.8186   16.0152 N   0  0  0  0  0  0  0  0  0  0  0  0
   18.4879    1.8963   15.6455 C   0  0  0  0  0  0  0  0  0  0  0  0
   18.7723    3.1671   15.8518 N   0  0  0  0  0  0  0  0  0  0  0  0
   17.7238    3.8742   15.3494 C   0  0  0  0  0  0  0  0  0  0  0  0
   16.7776    3.0352   14.8177 C   0  0  0  0  0  0  0  0  0  0  0  0
   17.2596    1.7534   14.9721 N   0  0  0  0  0  0  0  0  0  0  0  0
   14.8225   -0.9942   13.8006 C   0  0  0  0  0  0  0  0  0  0  0  0
   13.4121   -0.1898   16.8517 C   0  0  0  0  0  0  0  0  0  0  0  0
   14.8680    0.5096   18.2860 H   0  0  0  0  0  0  0  0  0  0  0  0
   15.3967   -1.8188   19.0274 H   0  0  0  0  0  0  0  0  0  0  0  0
   12.7208   -3.4893   16.3866 H   0  0  0  0  0  0  0  0  0  0  0  0
   10.9227   -0.8451   15.4247 H   0  0  0  0  0  0  0  0  0  0  0  0
   11.7719   -2.1309   14.5456 H   0  0  0  0  0  0  0  0  0  0  0  0
   12.9906   -1.5108   12.7388 H   0  0  0  0  0  0  0  0  0  0  0  0
   14.2115    0.1610   11.4416 H   0  0  0  0  0  0  0  0  0  0  0  0
   12.8624    1.1207   12.1048 H   0  0  0  0  0  0  0  0  0  0  0  0
   14.1978    1.9524   13.9016 H   0  0  0  0  0  0  0  0  0  0  0  0
   15.3666    1.9235   12.5396 H   0  0  0  0  0  0  0  0  0  0  0  0
   17.2047   -1.6180   14.8109 H   0  0  0  0  0  0  0  0  0  0  0  0
   19.3005   -1.2414   15.9937 H   0  0  0  0  0  0  0  0  0  0  0  0
   17.6966    4.9546   15.4046 H   0  0  0  0  0  0  0  0  0  0  0  0
   15.8283    3.2623   14.3704 H   0  0  0  0  0  0  0  0  0  0  0  0
   14.8201   -1.5422   14.7401 H   0  0  0  0  0  0  0  0  0  0  0  0
   15.3542   -1.5987   13.0547 H   0  0  0  0  0  0  0  0  0  0  0  0
   13.1818    0.8072   16.4816 H   0  0  0  0  0  0  0  0  0  0  0  0
  1  2  2  0
  2  3  1  0
  3  4  2  0
  4  5  1  0
  5  6  1  0
  6  7  1  0
  7  8  1  0
  8  9  1  0
  9 10  1  0
 10 11  1  0
 11 12  1  0
 12 13  2  0
 13 14  1  0
 14 15  2  0
 15 16  1  0
 16 17  2  0
 17 18  1  0
 18 19  2  0
 19 20  1  0
 11 21  1  0
  5 22  2  0
 22  1  1  0
 21  8  1  0
 20 12  1  0
 20 16  1  0
  1 23  1  0
  2 24  1  0
  4 25  1  0
  6 26  1  0
  6 27  1  0
  8 28  1  0
  9 29  1  0
  9 30  1  0
 10 31  1  0
 10 32  1  0
 13 33  1  0
 14 34  1  0
 18 35  1  0
 19 36  1  0
 21 37  1  0
 21 38  1  0
 22 39  1  0
M  END
>  <Energy>  (1360) 
96.593353053601476

>  <compound_id>  (1360) 
8779

>  <target_id>  (1360) 
1

>  <reference_id>  (1360) 
106

>  <inspiration_ids>  (1360) 
[3, 106]

>  <energy_score>  (1360) 
-39.83016328909622

>  <distance_score>  (1360) 
1.5583960369588852

>  <path>  (1360) 
/opt/xchem-fragalysis-2/maxwin/BulkDock/SCRATCH/511014/C8779-P106/C8779-P106.minimised.mol

>  <scratch_subdir>  (1360) 
/opt/xchem-fragalysis-2/maxwin/BulkDock/SCRATCH/511014/C8779-P106

>  <fragmenstein_runtime>  (1360) 
3.2381300926208496

>  <fragmenstein_outcome>  (1360) 
too moved

>  <fragmenstein_mode>  (1360) 
expansion

>  <fragmenstein_error>  (1360) 


$$$$
C8776-P3
     RDKit          3D

 49 52  0  0  0  0  0  0  0  0999 V2000
   -4.8515  -18.9546   15.3727 C   0  0  0  0  0  0  0  0  0  0  0  0
   -4.3555  -17.5091   15.5825 C   0  0  0  0  0  0  0  0  0  0  0  0
   -3.5676  -17.5007   16.9155 C   0  0  0  0  0  0  0  0  0  0  0  0
   -3.7205  -16.8757   14.3404 N   0  0  0  0  0  0  0  0  0  0  0  0
   -3.5652  -15.4084   14.3956 C   0  0  0  0  0  0  0  0  0  0  0  0
   -2.7020  -14.6001   13.3641 C   0  0  0  0  0  0  0  0  0  0  0  0
   -1.3195  -15.0982   13.3034 N   0  0  0  0  0  0  0  0  0  0  0  0
   -0.2345  -14.1597   12.7674 C   0  0  0  0  0  0  0  0  0  0  0  0
    1.1474  -14.7860   12.5225 C   0  0  0  0  0  0  0  0  0  0  0  0
    2.1178  -13.5987   12.2545 C   0  0  0  0  0  0  0  0  0  0  0  0
    1.6947  -12.4499   13.1032 N   0  0  0  0  0  0  0  0  0  0  0  0
    2.7066  -11.6590   13.8245 C   0  0  0  0  0  0  0  0  0  0  0  0
    3.3188  -12.0718   14.9561 C   0  0  0  0  0  0  0  0  0  0  0  0
    4.3354  -11.1757   15.5985 C   0  0  0  0  0  0  0  0  0  0  0  0
    4.7537  -10.0299   15.1643 N   0  0  0  0  0  0  0  0  0  0  0  0
    4.1910   -9.6231   13.9929 C   0  0  0  0  0  0  0  0  0  0  0  0
    4.4570   -8.5153   13.3264 N   0  0  0  0  0  0  0  0  0  0  0  0
    3.6723   -8.5571   12.2114 C   0  0  0  0  0  0  0  0  0  0  0  0
    2.8919   -9.6905   12.1936 C   0  0  0  0  0  0  0  0  0  0  0  0
    3.2026  -10.3973   13.3325 N   0  0  0  0  0  0  0  0  0  0  0  0
    0.3247  -12.8963   13.6671 C   0  0  0  0  0  0  0  0  0  0  0  0
   -1.4496  -16.5382   12.9077 C   0  0  0  0  0  0  0  0  0  0  0  0
   -2.5300  -17.4973   13.7255 C   0  0  0  0  0  0  0  0  0  0  0  0
   -4.0132  -19.6429   15.2228 H   0  0  0  0  0  0  0  0  0  0  0  0
   -5.4350  -19.3026   16.2318 H   0  0  0  0  0  0  0  0  0  0  0  0
   -5.4967  -19.0109   14.4893 H   0  0  0  0  0  0  0  0  0  0  0  0
   -5.2712  -16.9283   15.7541 H   0  0  0  0  0  0  0  0  0  0  0  0
   -3.2749  -16.4964   17.2246 H   0  0  0  0  0  0  0  0  0  0  0  0
   -4.1628  -17.9330   17.7266 H   0  0  0  0  0  0  0  0  0  0  0  0
   -2.6471  -18.0796   16.8197 H   0  0  0  0  0  0  0  0  0  0  0  0
   -4.5659  -14.9641   14.3636 H   0  0  0  0  0  0  0  0  0  0  0  0
   -3.0561  -15.1596   15.3245 H   0  0  0  0  0  0  0  0  0  0  0  0
   -3.1704  -14.6352   12.3728 H   0  0  0  0  0  0  0  0  0  0  0  0
   -2.6972  -13.5513   13.6847 H   0  0  0  0  0  0  0  0  0  0  0  0
   -0.5946  -13.7513   11.8138 H   0  0  0  0  0  0  0  0  0  0  0  0
    1.1452  -15.4871   11.6821 H   0  0  0  0  0  0  0  0  0  0  0  0
    1.4823  -15.3272   13.4161 H   0  0  0  0  0  0  0  0  0  0  0  0
    2.0488  -13.2914   11.2051 H   0  0  0  0  0  0  0  0  0  0  0  0
    3.1510  -13.9001   12.4586 H   0  0  0  0  0  0  0  0  0  0  0  0
    3.1035  -13.0132   15.4438 H   0  0  0  0  0  0  0  0  0  0  0  0
    4.7488  -11.5651   16.5446 H   0  0  0  0  0  0  0  0  0  0  0  0
    3.7044   -7.7659   11.4735 H   0  0  0  0  0  0  0  0  0  0  0  0
    2.1597  -10.0606   11.4919 H   0  0  0  0  0  0  0  0  0  0  0  0
    0.4709  -13.2149   14.7005 H   0  0  0  0  0  0  0  0  0  0  0  0
   -0.3820  -12.0623   13.6309 H   0  0  0  0  0  0  0  0  0  0  0  0
   -1.7323  -16.5743   11.8475 H   0  0  0  0  0  0  0  0  0  0  0  0
   -0.4737  -17.0284   12.9969 H   0  0  0  0  0  0  0  0  0  0  0  0
   -1.9648  -18.0747   14.4665 H   0  0  0  0  0  0  0  0  0  0  0  0
   -2.8833  -18.2404   12.9995 H   0  0  0  0  0  0  0  0  0  0  0  0
  1  2  1  0
  2  3  1  0
  2  4  1  0
  4  5  1  0
  5  6  1  0
  6  7  1  0
  7  8  1  0
  8  9  1  0
  9 10  1  0
 10 11  1  0
 11 12  1  0
 12 13  2  0
 13 14  1  0
 14 15  2  0
 15 16  1  0
 16 17  2  0
 17 18  1  0
 18 19  2  0
 19 20  1  0
 11 21  1  0
  7 22  1  0
 22 23  1  0
 23  4  1  0
 21  8  1  0
 20 12  1  0
 20 16  1  0
  1 24  1  0
  1 25  1  0
  1 26  1  0
  2 27  1  0
  3 28  1  0
  3 29  1  0
  3 30  1  0
  5 31  1  0
  5 32  1  0
  6 33  1  0
  6 34  1  0
  8 35  1  0
  9 36  1  0
  9 37  1  0
 10 38  1  0
 10 39  1  0
 13 40  1  0
 14 41  1  0
 18 42  1  0
 19 43  1  0
 21 44  1  0
 21 45  1  0
 22 46  1  0
 22 47  1  0
 23 48  1  0
 23 49  1  0
M  END
>  <Energy>  (1361) 
189.68530279356

>  <compound_id>  (1361) 
8776

>  <target_id>  (1361) 
1

>  <reference_id>  (1361) 
3

>  <inspiration_ids>  (1361) 
[3, 106]

>  <energy_score>  (1361) 
-24.386393859630743

>  <distance_score>  (1361) 
15.473750681519597

>  <path>  (1361) 
/opt/xchem-fragalysis-2/maxwin/BulkDock/SCRATCH/511014/C8776-P3/C8776-P3.minimised.mol

>  <scratch_subdir>  (1361) 
/opt/xchem-fragalysis-2/maxwin/BulkDock/SCRATCH/511014/C8776-P3

>  <fragmenstein_runtime>  (1361) 
27.10478186607361

>  <fragmenstein_outcome>  (1361) 
too moved

>  <fragmenstein_mode>  (1361) 
expansion

>  <fragmenstein_error>  (1361) 


$$$$
C8776-P106
     RDKit          3D

 49 52  0  0  0  0  0  0  0  0999 V2000
   -5.1372  -24.5039   22.9627 C   0  0  0  0  0  0  0  0  0  0  0  0
   -4.8534  -23.4048   21.9494 C   0  0  0  0  0  0  0  0  0  0  0  0
   -6.1584  -22.6465   21.6485 C   0  0  0  0  0  0  0  0  0  0  0  0
   -3.7833  -22.4855   22.3416 N   0  0  0  0  0  0  0  0  0  0  0  0
   -3.8389  -22.0251   23.6994 C   0  0  0  0  0  0  0  0  0  0  0  0
   -2.9354  -20.7563   23.9359 C   0  0  0  0  0  0  0  0  0  0  0  0
   -1.6690  -20.1673   22.8868 N   0  0  0  0  0  0  0  0  0  0  0  0
   -1.2664  -18.7889   21.4368 C   0  0  0  0  0  0  0  0  0  0  0  0
   -2.1742  -18.3382   20.0634 C   0  0  0  0  0  0  0  0  0  0  0  0
   -1.4186  -17.9779   18.7754 C   0  0  0  0  0  0  0  0  0  0  0  0
    0.3201  -17.8229   18.9049 N   0  0  0  0  0  0  0  0  0  0  0  0
    1.4405  -18.1559   17.5921 C   0  0  0  0  0  0  0  0  0  0  0  0
    1.9307  -19.4070   17.4049 C   0  0  0  0  0  0  0  0  0  0  0  0
    2.6534  -19.8276   16.1762 C   0  0  0  0  0  0  0  0  0  0  0  0
    2.9966  -19.1511   15.1356 N   0  0  0  0  0  0  0  0  0  0  0  0
    2.7048  -17.8367   15.1494 C   0  0  0  0  0  0  0  0  0  0  0  0
    3.1174  -16.9747   14.2333 N   0  0  0  0  0  0  0  0  0  0  0  0
    2.8987  -15.7348   14.7092 C   0  0  0  0  0  0  0  0  0  0  0  0
    2.3561  -15.8201   15.9581 C   0  0  0  0  0  0  0  0  0  0  0  0
    2.0315  -17.2347   16.2609 N   0  0  0  0  0  0  0  0  0  0  0  0
    0.0459  -17.6879   20.6371 C   0  0  0  0  0  0  0  0  0  0  0  0
   -1.3651  -21.9340   22.8437 C   0  0  0  0  0  0  0  0  0  0  0  0
   -2.4063  -22.8411   22.0428 C   0  0  0  0  0  0  0  0  0  0  0  0
   -4.2106  -25.0034   23.2628 H   0  0  0  0  0  0  0  0  0  0  0  0
   -5.7752  -25.2599   22.4983 H   0  0  0  0  0  0  0  0  0  0  0  0
   -5.6398  -24.1142   23.8513 H   0  0  0  0  0  0  0  0  0  0  0  0
   -4.5542  -23.8824   21.0070 H   0  0  0  0  0  0  0  0  0  0  0  0
   -5.9921  -21.9012   20.8623 H   0  0  0  0  0  0  0  0  0  0  0  0
   -6.9254  -23.3382   21.2823 H   0  0  0  0  0  0  0  0  0  0  0  0
   -6.5686  -22.1274   22.5120 H   0  0  0  0  0  0  0  0  0  0  0  0
   -4.8479  -21.7582   23.9623 H   0  0  0  0  0  0  0  0  0  0  0  0
   -3.5519  -22.8195   24.4040 H   0  0  0  0  0  0  0  0  0  0  0  0
   -3.4935  -20.1073   24.6230 H   0  0  0  0  0  0  0  0  0  0  0  0
   -2.3908  -21.1297   24.7897 H   0  0  0  0  0  0  0  0  0  0  0  0
   -0.7223  -18.3069   22.1527 H   0  0  0  0  0  0  0  0  0  0  0  0
   -2.7619  -17.4420   20.2840 H   0  0  0  0  0  0  0  0  0  0  0  0
   -2.8732  -19.1318   19.7485 H   0  0  0  0  0  0  0  0  0  0  0  0
   -1.6621  -18.5948   17.9173 H   0  0  0  0  0  0  0  0  0  0  0  0
   -1.8423  -16.9659   18.7513 H   0  0  0  0  0  0  0  0  0  0  0  0
    1.9429  -20.1623   18.1716 H   0  0  0  0  0  0  0  0  0  0  0  0
    2.9148  -20.9005   16.1743 H   0  0  0  0  0  0  0  0  0  0  0  0
    3.2098  -14.8491   14.1722 H   0  0  0  0  0  0  0  0  0  0  0  0
    2.2619  -15.0203   16.6811 H   0  0  0  0  0  0  0  0  0  0  0  0
    0.8194  -18.1377   21.1725 H   0  0  0  0  0  0  0  0  0  0  0  0
   -0.1502  -16.6424   20.8299 H   0  0  0  0  0  0  0  0  0  0  0  0
   -0.3302  -22.2213   22.6657 H   0  0  0  0  0  0  0  0  0  0  0  0
   -1.3744  -22.3227   23.8665 H   0  0  0  0  0  0  0  0  0  0  0  0
   -2.2068  -23.8818   22.3284 H   0  0  0  0  0  0  0  0  0  0  0  0
   -2.2300  -22.7659   20.9651 H   0  0  0  0  0  0  0  0  0  0  0  0
  1  2  1  0
  2  3  1  0
  2  4  1  0
  4  5  1  0
  5  6  1  0
  6  7  1  0
  7  8  1  0
  8  9  1  0
  9 10  1  0
 10 11  1  0
 11 12  1  0
 12 13  2  0
 13 14  1  0
 14 15  2  0
 15 16  1  0
 16 17  2  0
 17 18  1  0
 18 19  2  0
 19 20  1  0
 11 21  1  0
  7 22  1  0
 22 23  1  0
 23  4  1  0
 21  8  1  0
 20 12  1  0
 20 16  1  0
  1 24  1  0
  1 25  1  0
  1 26  1  0
  2 27  1  0
  3 28  1  0
  3 29  1  0
  3 30  1  0
  5 31  1  0
  5 32  1  0
  6 33  1  0
  6 34  1  0
  8 35  1  0
  9 36  1  0
  9 37  1  0
 10 38  1  0
 10 39  1  0
 13 40  1  0
 14 41  1  0
 18 42  1  0
 19 43  1  0
 21 44  1  0
 21 45  1  0
 22 46  1  0
 22 47  1  0
 23 48  1  0
 23 49  1  0
M  END
>  <Energy>  (1362) 
718.38217776755664

>  <compound_id>  (1362) 
8776

>  <target_id>  (1362) 
1

>  <reference_id>  (1362) 
106

>  <inspiration_ids>  (1362) 
[3, 106]

>  <energy_score>  (1362) 
504.3104811143578

>  <distance_score>  (1362) 
16.770793274795256

>  <path>  (1362) 
/opt/xchem-fragalysis-2/maxwin/BulkDock/SCRATCH/511014/C8776-P106/C8776-P106.minimised.mol

>  <scratch_subdir>  (1362) 
/opt/xchem-fragalysis-2/maxwin/BulkDock/SCRATCH/511014/C8776-P106

>  <fragmenstein_runtime>  (1362) 
30.477821588516235

>  <fragmenstein_outcome>  (1362) 
too moved

>  <fragmenstein_mode>  (1362) 
expansion

>  <fragmenstein_error>  (1362) 


$$$$
C8780-P106
     RDKit          2D

  0  0  0  0  0  0  0  0  0  0999 V2000
M  END
>  <compound_id>  (1363) 
8780

>  <target_id>  (1363) 
1

>  <reference_id>  (1363) 
106

>  <inspiration_ids>  (1363) 
[3, 106]

>  <energy_score>  (1363) 
nan

>  <distance_score>  (1363) 
nan

>  <path>  (1363) 
/opt/xchem-fragalysis-2/maxwin/BulkDock/SCRATCH/511014/C8780-P106/C8780-P106.minimised.mol

>  <scratch_subdir>  (1363) 
/opt/xchem-fragalysis-2/maxwin/BulkDock/SCRATCH/511014/C8780-P106

>  <fragmenstein_runtime>  (1363) 
1.3937804698944092

>  <fragmenstein_outcome>  (1363) 
too distant

>  <fragmenstein_mode>  (1363) 
expansion

>  <fragmenstein_error>  (1363) 
DistanceError: hit0

$$$$
C8782-P3
     RDKit          3D

 39 42  0  0  0  0  0  0  0  0999 V2000
    0.3235   -7.3264   16.8691 C   0  0  0  0  0  0  0  0  0  0  0  0
    0.1370   -6.2490   17.9307 C   0  0  0  0  0  0  0  0  0  0  0  0
   -1.3596   -5.9181   18.3355 C   0  0  0  0  0  0  0  0  0  0  0  0
   -2.5406   -6.9102   18.6222 C   0  0  0  0  0  0  0  0  0  0  0  0
   -3.5619   -6.5106   19.5286 C   0  0  0  0  0  0  0  0  0  0  0  0
   -4.7192   -7.2788   19.7768 C   0  0  0  0  0  0  0  0  0  0  0  0
   -4.9172   -8.4763   19.1073 C   0  0  0  0  0  0  0  0  0  0  0  0
   -3.9336   -8.9016   18.2130 C   0  0  0  0  0  0  0  0  0  0  0  0
   -2.7554   -8.1453   17.9946 C   0  0  0  0  0  0  0  0  0  0  0  0
   -1.6812   -4.8850   17.2533 C   0  0  0  0  0  0  0  0  0  0  0  0
   -0.3849   -4.0590   17.0915 C   0  0  0  0  0  0  0  0  0  0  0  0
    0.7467   -4.9517   17.4033 N   0  0  0  0  0  0  0  0  0  0  0  0
    2.1294   -4.5566   17.5917 C   0  0  0  0  0  0  0  0  0  0  0  0
    3.0286   -5.3813   18.1722 C   0  0  0  0  0  0  0  0  0  0  0  0
    4.3710   -4.8525   18.5109 C   0  0  0  0  0  0  0  0  0  0  0  0
    4.8458   -3.6962   18.1995 N   0  0  0  0  0  0  0  0  0  0  0  0
    4.0118   -2.9149   17.4695 C   0  0  0  0  0  0  0  0  0  0  0  0
    4.2920   -1.7375   16.9585 N   0  0  0  0  0  0  0  0  0  0  0  0
    3.1700   -1.3305   16.3125 C   0  0  0  0  0  0  0  0  0  0  0  0
    2.1750   -2.2679   16.4248 C   0  0  0  0  0  0  0  0  0  0  0  0
    2.6840   -3.2994   17.1787 N   0  0  0  0  0  0  0  0  0  0  0  0
    0.0865   -8.3172   17.2627 H   0  0  0  0  0  0  0  0  0  0  0  0
    1.3627   -7.3647   16.5247 H   0  0  0  0  0  0  0  0  0  0  0  0
   -0.2990   -7.1408   15.9882 H   0  0  0  0  0  0  0  0  0  0  0  0
    0.6737   -6.4952   18.8375 H   0  0  0  0  0  0  0  0  0  0  0  0
   -1.2529   -5.3590   19.2798 H   0  0  0  0  0  0  0  0  0  0  0  0
   -3.4712   -5.5496   20.0369 H   0  0  0  0  0  0  0  0  0  0  0  0
   -5.4821   -6.8857   20.4436 H   0  0  0  0  0  0  0  0  0  0  0  0
   -5.8282   -9.0505   19.2476 H   0  0  0  0  0  0  0  0  0  0  0  0
   -4.0741   -9.8189   17.6435 H   0  0  0  0  0  0  0  0  0  0  0  0
   -2.0505   -8.5245   17.2612 H   0  0  0  0  0  0  0  0  0  0  0  0
   -2.5273   -4.2423   17.5186 H   0  0  0  0  0  0  0  0  0  0  0  0
   -1.9316   -5.3820   16.3079 H   0  0  0  0  0  0  0  0  0  0  0  0
   -0.3326   -3.6952   16.0623 H   0  0  0  0  0  0  0  0  0  0  0  0
   -0.3953   -3.2132   17.7876 H   0  0  0  0  0  0  0  0  0  0  0  0
    2.8150   -6.3965   18.4619 H   0  0  0  0  0  0  0  0  0  0  0  0
    4.9852   -5.5320   19.1222 H   0  0  0  0  0  0  0  0  0  0  0  0
    3.1363   -0.3879   15.7823 H   0  0  0  0  0  0  0  0  0  0  0  0
    1.1835   -2.2758   16.0125 H   0  0  0  0  0  0  0  0  0  0  0  0
  1  2  1  0
  2  3  1  0
  3  4  1  0
  4  5  2  0
  5  6  1  0
  6  7  2  0
  7  8  1  0
  8  9  2  0
  3 10  1  0
 10 11  1  0
 11 12  1  0
 12 13  1  0
 13 14  2  0
 14 15  1  0
 15 16  2  0
 16 17  1  0
 17 18  2  0
 18 19  1  0
 19 20  2  0
 20 21  1  0
 12  2  1  0
 21 13  1  0
  9  4  1  0
 21 17  1  0
  1 22  1  0
  1 23  1  0
  1 24  1  0
  2 25  1  0
  3 26  1  0
  5 27  1  0
  6 28  1  0
  7 29  1  0
  8 30  1  0
  9 31  1  0
 10 32  1  0
 10 33  1  0
 11 34  1  0
 11 35  1  0
 14 36  1  0
 15 37  1  0
 19 38  1  0
 20 39  1  0
M  END
>  <Energy>  (1364) 
103.36037723591552

>  <compound_id>  (1364) 
8782

>  <target_id>  (1364) 
1

>  <reference_id>  (1364) 
3

>  <inspiration_ids>  (1364) 
[3, 106]

>  <energy_score>  (1364) 
-25.065283056151884

>  <distance_score>  (1364) 
15.476251600598689

>  <path>  (1364) 
/opt/xchem-fragalysis-2/maxwin/BulkDock/SCRATCH/511014/C8782-P3/C8782-P3.minimised.mol

>  <scratch_subdir>  (1364) 
/opt/xchem-fragalysis-2/maxwin/BulkDock/SCRATCH/511014/C8782-P3

>  <fragmenstein_runtime>  (1364) 
18.052308082580566

>  <fragmenstein_outcome>  (1364) 
too moved

>  <fragmenstein_mode>  (1364) 
expansion

>  <fragmenstein_error>  (1364) 


$$$$
C8782-P106
     RDKit          3D

 39 42  0  0  0  0  0  0  0  0999 V2000
    7.4110   -6.4981   25.2540 C   0  0  0  0  0  0  0  0  0  0  0  0
    8.3906   -7.6531   25.3309 C   0  0  0  0  0  0  0  0  0  0  0  0
    7.5644   -9.1420   25.3144 C   0  0  0  0  0  0  0  0  0  0  0  0
    6.7338  -10.0994   26.5117 C   0  0  0  0  0  0  0  0  0  0  0  0
    5.8292   -9.6900   27.5451 C   0  0  0  0  0  0  0  0  0  0  0  0
    5.2081  -10.5760   28.4614 C   0  0  0  0  0  0  0  0  0  0  0  0
    5.4887  -11.9165   28.3231 C   0  0  0  0  0  0  0  0  0  0  0  0
    6.2321  -12.3323   27.2529 C   0  0  0  0  0  0  0  0  0  0  0  0
    6.8074  -11.4803   26.3587 C   0  0  0  0  0  0  0  0  0  0  0  0
    8.7220   -9.9130   24.6089 C   0  0  0  0  0  0  0  0  0  0  0  0
    9.3774   -8.9868   23.5431 C   0  0  0  0  0  0  0  0  0  0  0  0
    9.4316   -7.6160   24.0908 N   0  0  0  0  0  0  0  0  0  0  0  0
   10.0486   -6.4881   23.3277 C   0  0  0  0  0  0  0  0  0  0  0  0
   11.2380   -5.8810   23.5950 C   0  0  0  0  0  0  0  0  0  0  0  0
   11.7225   -4.7757   22.6871 C   0  0  0  0  0  0  0  0  0  0  0  0
   11.0532   -4.2820   21.7071 N   0  0  0  0  0  0  0  0  0  0  0  0
    9.8246   -4.8325   21.5022 C   0  0  0  0  0  0  0  0  0  0  0  0
    8.8080   -4.3698   20.7992 N   0  0  0  0  0  0  0  0  0  0  0  0
    7.8129   -5.2833   20.8847 C   0  0  0  0  0  0  0  0  0  0  0  0
    8.2317   -6.3595   21.5998 C   0  0  0  0  0  0  0  0  0  0  0  0
    9.4070   -5.9700   22.1798 N   0  0  0  0  0  0  0  0  0  0  0  0
    6.7165   -6.5255   26.0995 H   0  0  0  0  0  0  0  0  0  0  0  0
    6.8229   -6.5368   24.3319 H   0  0  0  0  0  0  0  0  0  0  0  0
    7.9360   -5.5380   25.2754 H   0  0  0  0  0  0  0  0  0  0  0  0
    8.9925   -7.6068   26.2455 H   0  0  0  0  0  0  0  0  0  0  0  0
    6.7665   -9.0099   24.5679 H   0  0  0  0  0  0  0  0  0  0  0  0
    5.7098   -8.6213   27.6618 H   0  0  0  0  0  0  0  0  0  0  0  0
    4.6283  -10.1843   29.2834 H   0  0  0  0  0  0  0  0  0  0  0  0
    5.2216  -12.6822   28.9902 H   0  0  0  0  0  0  0  0  0  0  0  0
    6.6532  -13.2816   27.0723 H   0  0  0  0  0  0  0  0  0  0  0  0
    7.4189  -11.9185   25.5758 H   0  0  0  0  0  0  0  0  0  0  0  0
    9.4723  -10.2032   25.3548 H   0  0  0  0  0  0  0  0  0  0  0  0
    8.3753  -10.8194   24.1042 H   0  0  0  0  0  0  0  0  0  0  0  0
   10.3839   -9.3438   23.3012 H   0  0  0  0  0  0  0  0  0  0  0  0
    8.7760   -9.0128   22.6303 H   0  0  0  0  0  0  0  0  0  0  0  0
   11.8650   -6.1667   24.4273 H   0  0  0  0  0  0  0  0  0  0  0  0
   12.7257   -4.3838   22.9227 H   0  0  0  0  0  0  0  0  0  0  0  0
    6.8417   -5.1412   20.4258 H   0  0  0  0  0  0  0  0  0  0  0  0
    7.7132   -7.2582   21.8892 H   0  0  0  0  0  0  0  0  0  0  0  0
  1  2  1  0
  2  3  1  0
  3  4  1  0
  4  5  2  0
  5  6  1  0
  6  7  2  0
  7  8  1  0
  8  9  2  0
  3 10  1  0
 10 11  1  0
 11 12  1  0
 12 13  1  0
 13 14  2  0
 14 15  1  0
 15 16  2  0
 16 17  1  0
 17 18  2  0
 18 19  1  0
 19 20  2  0
 20 21  1  0
 12  2  1  0
 21 13  1  0
  9  4  1  0
 21 17  1  0
  1 22  1  0
  1 23  1  0
  1 24  1  0
  2 25  1  0
  3 26  1  0
  5 27  1  0
  6 28  1  0
  7 29  1  0
  8 30  1  0
  9 31  1  0
 10 32  1  0
 10 33  1  0
 11 34  1  0
 11 35  1  0
 14 36  1  0
 15 37  1  0
 19 38  1  0
 20 39  1  0
M  END
>  <Energy>  (1365) 
160.87110805213246

>  <compound_id>  (1365) 
8782

>  <target_id>  (1365) 
1

>  <reference_id>  (1365) 
106

>  <inspiration_ids>  (1365) 
[3, 106]

>  <energy_score>  (1365) 
41.91092620358836

>  <distance_score>  (1365) 
14.182186743848034

>  <path>  (1365) 
/opt/xchem-fragalysis-2/maxwin/BulkDock/SCRATCH/511014/C8782-P106/C8782-P106.minimised.mol

>  <scratch_subdir>  (1365) 
/opt/xchem-fragalysis-2/maxwin/BulkDock/SCRATCH/511014/C8782-P106

>  <fragmenstein_runtime>  (1365) 
17.432567834854126

>  <fragmenstein_outcome>  (1365) 
too moved

>  <fragmenstein_mode>  (1365) 
expansion

>  <fragmenstein_error>  (1365) 


$$$$
C8666-P3
     RDKit          3D

 36 39  0  0  0  0  0  0  0  0999 V2000
   -0.2790  -21.0651   25.9070 C   0  0  0  0  0  0  0  0  0  0  0  0
   -1.1049  -22.1735   25.8832 C   0  0  0  0  0  0  0  0  0  0  0  0
   -1.6636  -22.3037   27.1544 N   0  0  0  0  0  0  0  0  0  0  0  0
   -2.7479  -23.3120   27.6182 C   0  0  0  0  0  0  0  0  0  0  0  0
   -4.5795  -23.0042   27.5192 C   0  0  0  0  0  0  0  0  0  0  0  0
   -4.3310  -21.9894   26.3012 C   0  0  0  0  0  0  0  0  0  0  0  0
   -4.0737  -20.7737   27.1493 C   0  0  0  0  0  0  0  0  0  0  0  0
   -4.2252  -21.3199   28.5990 C   0  0  0  0  0  0  0  0  0  0  0  0
   -5.7125  -21.9192   28.6320 N   0  0  0  0  0  0  0  0  0  0  0  0
   -7.1939  -22.3862   29.9469 C   0  0  0  0  0  0  0  0  0  0  0  0
   -8.6598  -21.8666   29.6859 C   0  0  0  0  0  0  0  0  0  0  0  0
   -9.8417  -22.7437   29.9544 C   0  0  0  0  0  0  0  0  0  0  0  0
   -9.8626  -23.6417   30.8639 N   0  0  0  0  0  0  0  0  0  0  0  0
   -8.9281  -23.3031   31.7773 C   0  0  0  0  0  0  0  0  0  0  0  0
   -9.3036  -22.9741   32.9915 N   0  0  0  0  0  0  0  0  0  0  0  0
   -8.2971  -22.2461   33.4869 C   0  0  0  0  0  0  0  0  0  0  0  0
   -7.2541  -22.2096   32.6132 C   0  0  0  0  0  0  0  0  0  0  0  0
   -7.6050  -22.7970   31.4200 N   0  0  0  0  0  0  0  0  0  0  0  0
   -0.9876  -21.3460   27.9019 C   0  0  0  0  0  0  0  0  0  0  0  0
   -0.2287  -20.5474   27.1702 N   0  0  0  0  0  0  0  0  0  0  0  0
    0.2833  -20.6342   25.0871 H   0  0  0  0  0  0  0  0  0  0  0  0
   -1.3683  -22.8453   25.0779 H   0  0  0  0  0  0  0  0  0  0  0  0
   -2.5980  -24.1452   26.9160 H   0  0  0  0  0  0  0  0  0  0  0  0
   -2.4483  -23.6755   28.6056 H   0  0  0  0  0  0  0  0  0  0  0  0
   -4.9707  -24.0178   27.4203 H   0  0  0  0  0  0  0  0  0  0  0  0
   -5.1016  -21.7553   25.5677 H   0  0  0  0  0  0  0  0  0  0  0  0
   -3.5321  -22.2984   25.6336 H   0  0  0  0  0  0  0  0  0  0  0  0
   -4.8095  -19.9967   26.9755 H   0  0  0  0  0  0  0  0  0  0  0  0
   -3.1201  -20.2865   26.9536 H   0  0  0  0  0  0  0  0  0  0  0  0
   -3.5589  -20.6852   29.2412 H   0  0  0  0  0  0  0  0  0  0  0  0
   -3.5855  -22.1162   28.9093 H   0  0  0  0  0  0  0  0  0  0  0  0
   -8.8763  -21.2710   28.7803 H   0  0  0  0  0  0  0  0  0  0  0  0
  -10.6441  -22.6914   29.1994 H   0  0  0  0  0  0  0  0  0  0  0  0
   -8.3498  -21.8261   34.4772 H   0  0  0  0  0  0  0  0  0  0  0  0
   -6.3009  -21.7551   32.6841 H   0  0  0  0  0  0  0  0  0  0  0  0
   -1.1207  -21.2611   28.9724 H   0  0  0  0  0  0  0  0  0  0  0  0
  1  2  2  0
  2  3  1  0
  3  4  1  0
  4  5  1  0
  5  6  1  0
  6  7  1  0
  7  8  1  0
  8  9  1  0
  9 10  1  0
 10 11  2  0
 11 12  1  0
 12 13  2  0
 13 14  1  0
 14 15  2  0
 15 16  1  0
 16 17  2  0
 17 18  1  0
  3 19  1  0
 19 20  2  0
 20  1  1  0
  9  5  1  0
 18 10  1  0
 18 14  1  0
  1 21  1  0
  2 22  1  0
  4 23  1  0
  4 24  1  0
  5 25  1  0
  6 26  1  0
  6 27  1  0
  7 28  1  0
  7 29  1  0
  8 30  1  0
  8 31  1  0
 11 32  1  0
 12 33  1  0
 16 34  1  0
 17 35  1  0
 19 36  1  0
M  END
>  <Energy>  (1366) 
588.98042871665825

>  <compound_id>  (1366) 
8666

>  <target_id>  (1366) 
1

>  <reference_id>  (1366) 
3

>  <inspiration_ids>  (1366) 
[3, 106]

>  <energy_score>  (1366) 
482.02938230938446

>  <distance_score>  (1366) 
15.19548951541657

>  <path>  (1366) 
/opt/xchem-fragalysis-2/maxwin/BulkDock/SCRATCH/511014/C8666-P3/C8666-P3.minimised.mol

>  <scratch_subdir>  (1366) 
/opt/xchem-fragalysis-2/maxwin/BulkDock/SCRATCH/511014/C8666-P3

>  <fragmenstein_runtime>  (1366) 
16.993940114974976

>  <fragmenstein_outcome>  (1366) 
too moved

>  <fragmenstein_mode>  (1366) 
expansion

>  <fragmenstein_error>  (1366) 


$$$$
C8666-P106
     RDKit          3D

 36 39  0  0  0  0  0  0  0  0999 V2000
   -5.7291  -11.1432   17.7895 C   0  0  0  0  0  0  0  0  0  0  0  0
   -5.7400  -11.5246   19.1059 C   0  0  0  0  0  0  0  0  0  0  0  0
   -7.0649  -11.7016   19.5107 N   0  0  0  0  0  0  0  0  0  0  0  0
   -7.5855  -11.7110   20.9150 C   0  0  0  0  0  0  0  0  0  0  0  0
   -8.4971  -12.8603   21.6073 C   0  0  0  0  0  0  0  0  0  0  0  0
   -9.9157  -12.9154   21.0175 C   0  0  0  0  0  0  0  0  0  0  0  0
  -10.8266  -12.1899   22.0043 C   0  0  0  0  0  0  0  0  0  0  0  0
   -9.9162  -11.6354   23.0945 C   0  0  0  0  0  0  0  0  0  0  0  0
   -8.7413  -12.5421   23.1185 N   0  0  0  0  0  0  0  0  0  0  0  0
   -8.8337  -13.5645   24.1289 C   0  0  0  0  0  0  0  0  0  0  0  0
   -9.6570  -14.6134   24.0125 C   0  0  0  0  0  0  0  0  0  0  0  0
   -9.6967  -15.5804   25.1213 C   0  0  0  0  0  0  0  0  0  0  0  0
   -9.1089  -15.4993   26.2622 N   0  0  0  0  0  0  0  0  0  0  0  0
   -8.3798  -14.3724   26.4415 C   0  0  0  0  0  0  0  0  0  0  0  0
   -7.7484  -13.9988   27.5349 N   0  0  0  0  0  0  0  0  0  0  0  0
   -7.2682  -12.7525   27.2710 C   0  0  0  0  0  0  0  0  0  0  0  0
   -7.5712  -12.3690   25.9849 C   0  0  0  0  0  0  0  0  0  0  0  0
   -8.2485  -13.4183   25.4188 N   0  0  0  0  0  0  0  0  0  0  0  0
   -7.7732  -11.3240   18.3900 C   0  0  0  0  0  0  0  0  0  0  0  0
   -7.0089  -11.0215   17.3559 N   0  0  0  0  0  0  0  0  0  0  0  0
   -4.8796  -10.9040   17.1639 H   0  0  0  0  0  0  0  0  0  0  0  0
   -4.9127  -11.5640   19.8008 H   0  0  0  0  0  0  0  0  0  0  0  0
   -6.6996  -11.5887   21.5477 H   0  0  0  0  0  0  0  0  0  0  0  0
   -8.1428  -10.7680   20.9934 H   0  0  0  0  0  0  0  0  0  0  0  0
   -8.0306  -13.8380   21.4944 H   0  0  0  0  0  0  0  0  0  0  0  0
  -10.2453  -13.9548   20.9104 H   0  0  0  0  0  0  0  0  0  0  0  0
   -9.9736  -12.4707   20.0212 H   0  0  0  0  0  0  0  0  0  0  0  0
  -11.5582  -12.8881   22.4261 H   0  0  0  0  0  0  0  0  0  0  0  0
  -11.3943  -11.3885   21.5204 H   0  0  0  0  0  0  0  0  0  0  0  0
   -9.5783  -10.6253   22.8364 H   0  0  0  0  0  0  0  0  0  0  0  0
  -10.4290  -11.5679   24.0611 H   0  0  0  0  0  0  0  0  0  0  0  0
  -10.3027  -14.7596   23.1668 H   0  0  0  0  0  0  0  0  0  0  0  0
  -10.2790  -16.4791   24.9054 H   0  0  0  0  0  0  0  0  0  0  0  0
   -6.7168  -12.1895   28.0144 H   0  0  0  0  0  0  0  0  0  0  0  0
   -7.3681  -11.4694   25.4284 H   0  0  0  0  0  0  0  0  0  0  0  0
   -8.8527  -11.2591   18.3888 H   0  0  0  0  0  0  0  0  0  0  0  0
  1  2  2  0
  2  3  1  0
  3  4  1  0
  4  5  1  0
  5  6  1  0
  6  7  1  0
  7  8  1  0
  8  9  1  0
  9 10  1  0
 10 11  2  0
 11 12  1  0
 12 13  2  0
 13 14  1  0
 14 15  2  0
 15 16  1  0
 16 17  2  0
 17 18  1  0
  3 19  1  0
 19 20  2  0
 20  1  1  0
  9  5  1  0
 18 10  1  0
 18 14  1  0
  1 21  1  0
  2 22  1  0
  4 23  1  0
  4 24  1  0
  5 25  1  0
  6 26  1  0
  6 27  1  0
  7 28  1  0
  7 29  1  0
  8 30  1  0
  8 31  1  0
 11 32  1  0
 12 33  1  0
 16 34  1  0
 17 35  1  0
 19 36  1  0
M  END
>  <Energy>  (1367) 
98.265734017823817

>  <compound_id>  (1367) 
8666

>  <target_id>  (1367) 
1

>  <reference_id>  (1367) 
106

>  <inspiration_ids>  (1367) 
[3, 106]

>  <energy_score>  (1367) 
-8.685312389452292

>  <distance_score>  (1367) 
15.055875282177203

>  <path>  (1367) 
/opt/xchem-fragalysis-2/maxwin/BulkDock/SCRATCH/511014/C8666-P106/C8666-P106.minimised.mol

>  <scratch_subdir>  (1367) 
/opt/xchem-fragalysis-2/maxwin/BulkDock/SCRATCH/511014/C8666-P106

>  <fragmenstein_runtime>  (1367) 
22.889142513275146

>  <fragmenstein_outcome>  (1367) 
too moved

>  <fragmenstein_mode>  (1367) 
expansion

>  <fragmenstein_error>  (1367) 


$$$$
C8784-P106
     RDKit          2D

  0  0  0  0  0  0  0  0  0  0999 V2000
M  END
>  <compound_id>  (1368) 
8784

>  <target_id>  (1368) 
1

>  <reference_id>  (1368) 
106

>  <inspiration_ids>  (1368) 
[3, 106]

>  <energy_score>  (1368) 
nan

>  <distance_score>  (1368) 
nan

>  <path>  (1368) 
/opt/xchem-fragalysis-2/maxwin/BulkDock/SCRATCH/511014/C8784-P106/C8784-P106.minimised.mol

>  <scratch_subdir>  (1368) 
/opt/xchem-fragalysis-2/maxwin/BulkDock/SCRATCH/511014/C8784-P106

>  <fragmenstein_runtime>  (1368) 
0.40694618225097656

>  <fragmenstein_outcome>  (1368) 
too distant

>  <fragmenstein_mode>  (1368) 
expansion

>  <fragmenstein_error>  (1368) 
DistanceError: hit0

$$$$
C8786-P106
     RDKit          2D

  0  0  0  0  0  0  0  0  0  0999 V2000
M  END
>  <compound_id>  (1369) 
8786

>  <target_id>  (1369) 
1

>  <reference_id>  (1369) 
106

>  <inspiration_ids>  (1369) 
[3, 106]

>  <energy_score>  (1369) 
nan

>  <distance_score>  (1369) 
nan

>  <path>  (1369) 
/opt/xchem-fragalysis-2/maxwin/BulkDock/SCRATCH/511014/C8786-P106/C8786-P106.minimised.mol

>  <scratch_subdir>  (1369) 
/opt/xchem-fragalysis-2/maxwin/BulkDock/SCRATCH/511014/C8786-P106

>  <fragmenstein_runtime>  (1369) 
0.490814208984375

>  <fragmenstein_outcome>  (1369) 
too distant

>  <fragmenstein_mode>  (1369) 
expansion

>  <fragmenstein_error>  (1369) 
DistanceError: hit0

$$$$
C8788-P106
     RDKit          2D

  0  0  0  0  0  0  0  0  0  0999 V2000
M  END
>  <compound_id>  (1370) 
8788

>  <target_id>  (1370) 
1

>  <reference_id>  (1370) 
106

>  <inspiration_ids>  (1370) 
[3, 106]

>  <energy_score>  (1370) 
nan

>  <distance_score>  (1370) 
nan

>  <path>  (1370) 
/opt/xchem-fragalysis-2/maxwin/BulkDock/SCRATCH/511014/C8788-P106/C8788-P106.minimised.mol

>  <scratch_subdir>  (1370) 
/opt/xchem-fragalysis-2/maxwin/BulkDock/SCRATCH/511014/C8788-P106

>  <fragmenstein_runtime>  (1370) 
2.312466621398926

>  <fragmenstein_outcome>  (1370) 
too distant

>  <fragmenstein_mode>  (1370) 
expansion

>  <fragmenstein_error>  (1370) 
DistanceError: hit1

$$$$
C8789-P3
     RDKit          3D

 43 45  0  0  0  0  0  0  0  0999 V2000
   -4.9004  -21.9830   22.9784 C   0  0  0  0  0  0  0  0  0  0  0  0
   -4.9176  -21.4041   21.5706 C   0  0  0  0  0  0  0  0  0  0  0  0
   -3.5046  -21.0839   21.0238 C   0  0  0  0  0  0  0  0  0  0  0  0
   -3.5366  -20.4122   19.6011 C   0  0  0  0  0  0  0  0  0  0  0  0
   -2.3243  -19.7544   19.0299 N   0  0  0  0  0  0  0  0  0  0  0  0
   -1.0452  -19.7946   19.7311 C   0  0  0  0  0  0  0  0  0  0  0  0
   -0.1865  -18.6984   19.0355 C   0  0  0  0  0  0  0  0  0  0  0  0
   -1.1733  -17.5526   18.8461 C   0  0  0  0  0  0  0  0  0  0  0  0
   -0.8618  -16.2423   18.0090 C   0  0  0  0  0  0  0  0  0  0  0  0
    0.3674  -15.3718   18.3029 N   0  0  0  0  0  0  0  0  0  0  0  0
    0.5648  -13.8520   18.8386 C   0  0  0  0  0  0  0  0  0  0  0  0
   -0.6170  -12.9027   19.8851 C   0  0  0  0  0  0  0  0  0  0  0  0
   -0.1517  -10.7388   19.8959 C   0  0  0  0  0  0  0  0  0  0  0  0
    1.1975  -10.1804   19.1628 N   0  0  0  0  0  0  0  0  0  0  0  0
    2.3280  -11.2162   18.5356 C   0  0  0  0  0  0  0  0  0  0  0  0
    3.4523  -10.9173   17.8992 N   0  0  0  0  0  0  0  0  0  0  0  0
    3.8221  -12.0245   17.1527 C   0  0  0  0  0  0  0  0  0  0  0  0
    2.9849  -13.1285   17.2343 C   0  0  0  0  0  0  0  0  0  0  0  0
    2.0360  -12.9092   18.2325 N   0  0  0  0  0  0  0  0  0  0  0  0
   -2.4143  -18.4167   18.3544 C   0  0  0  0  0  0  0  0  0  0  0  0
   -4.4234  -21.2943   23.6795 H   0  0  0  0  0  0  0  0  0  0  0  0
   -5.9295  -22.1591   23.2988 H   0  0  0  0  0  0  0  0  0  0  0  0
   -4.3584  -22.9331   23.0026 H   0  0  0  0  0  0  0  0  0  0  0  0
   -5.5309  -20.4962   21.5705 H   0  0  0  0  0  0  0  0  0  0  0  0
   -5.4073  -22.1161   20.8958 H   0  0  0  0  0  0  0  0  0  0  0  0
   -2.9219  -22.0110   20.9563 H   0  0  0  0  0  0  0  0  0  0  0  0
   -2.9800  -20.4467   21.7420 H   0  0  0  0  0  0  0  0  0  0  0  0
   -3.7994  -21.2084   18.8920 H   0  0  0  0  0  0  0  0  0  0  0  0
   -4.3847  -19.7216   19.5468 H   0  0  0  0  0  0  0  0  0  0  0  0
   -1.1459  -19.5379   20.7911 H   0  0  0  0  0  0  0  0  0  0  0  0
   -0.5674  -20.7752   19.6487 H   0  0  0  0  0  0  0  0  0  0  0  0
    0.1850  -19.0550   18.0671 H   0  0  0  0  0  0  0  0  0  0  0  0
    0.6722  -18.4171   19.6493 H   0  0  0  0  0  0  0  0  0  0  0  0
   -1.3369  -17.1936   19.8525 H   0  0  0  0  0  0  0  0  0  0  0  0
   -1.7611  -15.6201   18.0243 H   0  0  0  0  0  0  0  0  0  0  0  0
   -0.7453  -16.5579   16.9646 H   0  0  0  0  0  0  0  0  0  0  0  0
    1.0528  -15.4980   17.5590 H   0  0  0  0  0  0  0  0  0  0  0  0
   -1.4582  -13.3764   20.3701 H   0  0  0  0  0  0  0  0  0  0  0  0
    0.6503  -10.5194   20.7243 H   0  0  0  0  0  0  0  0  0  0  0  0
    4.6939  -11.9538   16.5128 H   0  0  0  0  0  0  0  0  0  0  0  0
    2.9963  -14.0637   16.6965 H   0  0  0  0  0  0  0  0  0  0  0  0
   -2.3200  -18.5898   17.2751 H   0  0  0  0  0  0  0  0  0  0  0  0
   -3.3627  -17.8934   18.5045 H   0  0  0  0  0  0  0  0  0  0  0  0
  1  2  1  0
  2  3  1  0
  3  4  1  0
  4  5  1  0
  5  6  1  0
  6  7  1  0
  7  8  1  0
  8  9  1  0
  9 10  1  0
 10 11  1  0
 11 12  2  0
 12 13  1  0
 13 14  2  0
 14 15  1  0
 15 16  2  0
 16 17  1  0
 17 18  2  0
 18 19  1  0
  8 20  1  0
 20  5  1  0
 19 11  1  0
 19 15  1  0
  1 21  1  0
  1 22  1  0
  1 23  1  0
  2 24  1  0
  2 25  1  0
  3 26  1  0
  3 27  1  0
  4 28  1  0
  4 29  1  0
  6 30  1  0
  6 31  1  0
  7 32  1  0
  7 33  1  0
  8 34  1  0
  9 35  1  0
  9 36  1  0
 10 37  1  0
 12 38  1  0
 13 39  1  0
 17 40  1  0
 18 41  1  0
 20 42  1  0
 20 43  1  0
M  END
>  <Energy>  (1371) 
568.285998286824

>  <compound_id>  (1371) 
8789

>  <target_id>  (1371) 
1

>  <reference_id>  (1371) 
3

>  <inspiration_ids>  (1371) 
[3, 106]

>  <energy_score>  (1371) 
469.2145019534248

>  <distance_score>  (1371) 
14.567604259498667

>  <path>  (1371) 
/opt/xchem-fragalysis-2/maxwin/BulkDock/SCRATCH/511014/C8789-P3/C8789-P3.minimised.mol

>  <scratch_subdir>  (1371) 
/opt/xchem-fragalysis-2/maxwin/BulkDock/SCRATCH/511014/C8789-P3

>  <fragmenstein_runtime>  (1371) 
13.020096778869629

>  <fragmenstein_outcome>  (1371) 
too moved

>  <fragmenstein_mode>  (1371) 
expansion

>  <fragmenstein_error>  (1371) 


$$$$
C8789-P106
     RDKit          3D

 43 45  0  0  0  0  0  0  0  0999 V2000
  -10.5789  -25.1536   29.9828 C   0  0  0  0  0  0  0  0  0  0  0  0
   -9.9589  -26.3497   29.2798 C   0  0  0  0  0  0  0  0  0  0  0  0
   -8.8426  -26.0337   28.2386 C   0  0  0  0  0  0  0  0  0  0  0  0
   -7.6143  -25.0697   28.8050 C   0  0  0  0  0  0  0  0  0  0  0  0
   -5.9003  -24.0415   28.3706 N   0  0  0  0  0  0  0  0  0  0  0  0
   -5.8881  -22.8770   27.2960 C   0  0  0  0  0  0  0  0  0  0  0  0
   -4.4219  -22.3505   26.7840 C   0  0  0  0  0  0  0  0  0  0  0  0
   -3.1927  -22.9020   27.5532 C   0  0  0  0  0  0  0  0  0  0  0  0
   -1.7632  -21.8833   28.1699 C   0  0  0  0  0  0  0  0  0  0  0  0
   -0.5571  -21.0434   27.2735 N   0  0  0  0  0  0  0  0  0  0  0  0
    0.4705  -19.9319   27.6610 C   0  0  0  0  0  0  0  0  0  0  0  0
    0.2236  -18.9968   28.6054 C   0  0  0  0  0  0  0  0  0  0  0  0
    1.1893  -17.8507   28.7850 C   0  0  0  0  0  0  0  0  0  0  0  0
    2.2697  -17.6053   28.1169 N   0  0  0  0  0  0  0  0  0  0  0  0
    2.5449  -18.4891   27.1205 C   0  0  0  0  0  0  0  0  0  0  0  0
    3.5017  -18.3739   26.2138 N   0  0  0  0  0  0  0  0  0  0  0  0
    3.3107  -19.4053   25.3456 C   0  0  0  0  0  0  0  0  0  0  0  0
    2.2471  -20.1920   25.7360 C   0  0  0  0  0  0  0  0  0  0  0  0
    1.7002  -19.6168   26.8682 N   0  0  0  0  0  0  0  0  0  0  0  0
   -4.0640  -23.9573   28.6030 C   0  0  0  0  0  0  0  0  0  0  0  0
  -11.4988  -25.4583   30.4933 H   0  0  0  0  0  0  0  0  0  0  0  0
   -9.9067  -24.7617   30.7490 H   0  0  0  0  0  0  0  0  0  0  0  0
  -10.8351  -24.3615   29.2736 H   0  0  0  0  0  0  0  0  0  0  0  0
   -9.5984  -27.0478   30.0415 H   0  0  0  0  0  0  0  0  0  0  0  0
  -10.7595  -26.8763   28.7447 H   0  0  0  0  0  0  0  0  0  0  0  0
   -8.4356  -26.9646   27.8552 H   0  0  0  0  0  0  0  0  0  0  0  0
   -9.4008  -25.5247   27.4443 H   0  0  0  0  0  0  0  0  0  0  0  0
   -7.7735  -25.0917   29.8967 H   0  0  0  0  0  0  0  0  0  0  0  0
   -8.4371  -24.2571   28.5783 H   0  0  0  0  0  0  0  0  0  0  0  0
   -6.4098  -23.1248   26.3768 H   0  0  0  0  0  0  0  0  0  0  0  0
   -6.4680  -22.0632   27.7003 H   0  0  0  0  0  0  0  0  0  0  0  0
   -4.3246  -22.7075   25.7486 H   0  0  0  0  0  0  0  0  0  0  0  0
   -4.4032  -21.2618   26.6964 H   0  0  0  0  0  0  0  0  0  0  0  0
   -2.6683  -23.5776   26.8612 H   0  0  0  0  0  0  0  0  0  0  0  0
   -2.0949  -21.1740   28.9231 H   0  0  0  0  0  0  0  0  0  0  0  0
   -1.1597  -22.6328   28.6974 H   0  0  0  0  0  0  0  0  0  0  0  0
   -0.1101  -21.7127   26.6330 H   0  0  0  0  0  0  0  0  0  0  0  0
   -0.6685  -19.0009   29.2179 H   0  0  0  0  0  0  0  0  0  0  0  0
    0.9112  -17.1568   29.5972 H   0  0  0  0  0  0  0  0  0  0  0  0
    3.9392  -19.5394   24.4750 H   0  0  0  0  0  0  0  0  0  0  0  0
    1.8066  -21.0668   25.2819 H   0  0  0  0  0  0  0  0  0  0  0  0
   -3.6096  -24.9527   28.4689 H   0  0  0  0  0  0  0  0  0  0  0  0
   -3.7540  -23.5966   29.5965 H   0  0  0  0  0  0  0  0  0  0  0  0
  1  2  1  0
  2  3  1  0
  3  4  1  0
  4  5  1  0
  5  6  1  0
  6  7  1  0
  7  8  1  0
  8  9  1  0
  9 10  1  0
 10 11  1  0
 11 12  2  0
 12 13  1  0
 13 14  2  0
 14 15  1  0
 15 16  2  0
 16 17  1  0
 17 18  2  0
 18 19  1  0
  8 20  1  0
 20  5  1  0
 19 11  1  0
 19 15  1  0
  1 21  1  0
  1 22  1  0
  1 23  1  0
  2 24  1  0
  2 25  1  0
  3 26  1  0
  3 27  1  0
  4 28  1  0
  4 29  1  0
  6 30  1  0
  6 31  1  0
  7 32  1  0
  7 33  1  0
  8 34  1  0
  9 35  1  0
  9 36  1  0
 10 37  1  0
 12 38  1  0
 13 39  1  0
 17 40  1  0
 18 41  1  0
 20 42  1  0
 20 43  1  0
M  END
>  <Energy>  (1372) 
407.52902320314161

>  <compound_id>  (1372) 
8789

>  <target_id>  (1372) 
1

>  <reference_id>  (1372) 
106

>  <inspiration_ids>  (1372) 
[3, 106]

>  <energy_score>  (1372) 
308.4575268697429

>  <distance_score>  (1372) 
17.007052499774723

>  <path>  (1372) 
/opt/xchem-fragalysis-2/maxwin/BulkDock/SCRATCH/511014/C8789-P106/C8789-P106.minimised.mol

>  <scratch_subdir>  (1372) 
/opt/xchem-fragalysis-2/maxwin/BulkDock/SCRATCH/511014/C8789-P106

>  <fragmenstein_runtime>  (1372) 
21.44541883468628

>  <fragmenstein_outcome>  (1372) 
too moved

>  <fragmenstein_mode>  (1372) 
expansion

>  <fragmenstein_error>  (1372) 


$$$$
C8774-P3
     RDKit          3D

 37 39  0  0  0  0  0  0  0  0999 V2000
   -7.5119  -15.4591   19.3829 F   0  0  0  0  0  0  0  0  0  0  0  0
   -6.8967  -16.6674   19.4433 C   0  0  0  0  0  0  0  0  0  0  0  0
   -6.6133  -16.9056   20.7471 F   0  0  0  0  0  0  0  0  0  0  0  0
   -7.8099  -17.5950   19.0632 F   0  0  0  0  0  0  0  0  0  0  0  0
   -5.6608  -16.6997   18.4497 C   0  0  0  0  0  0  0  0  0  0  0  0
   -4.7217  -15.5291   18.4140 N   0  0  0  0  0  0  0  0  0  0  0  0
   -4.8058  -14.6801   17.2145 C   0  0  0  0  0  0  0  0  0  0  0  0
   -3.4205  -13.8956   17.1606 C   0  0  0  0  0  0  0  0  0  0  0  0
   -2.6782  -14.1603   18.6016 C   0  0  0  0  0  0  0  0  0  0  0  0
   -1.3886  -13.4732   20.0283 C   0  0  0  0  0  0  0  0  0  0  0  0
   -0.8363  -11.6373   20.1850 N   0  0  0  0  0  0  0  0  0  0  0  0
    0.3260  -10.2045   19.8563 C   0  0  0  0  0  0  0  0  0  0  0  0
    1.6273  -10.1921   20.3365 C   0  0  0  0  0  0  0  0  0  0  0  0
    2.6450   -9.2129   19.8518 C   0  0  0  0  0  0  0  0  0  0  0  0
    2.4482   -8.2442   19.0291 N   0  0  0  0  0  0  0  0  0  0  0  0
    1.1818   -8.1694   18.5405 C   0  0  0  0  0  0  0  0  0  0  0  0
    0.7614   -7.2940   17.6503 N   0  0  0  0  0  0  0  0  0  0  0  0
   -0.5359   -7.6146   17.4040 C   0  0  0  0  0  0  0  0  0  0  0  0
   -0.9388   -8.7007   18.1465 C   0  0  0  0  0  0  0  0  0  0  0  0
    0.1424   -9.0921   18.9013 N   0  0  0  0  0  0  0  0  0  0  0  0
   -3.2632  -15.7307   18.4568 C   0  0  0  0  0  0  0  0  0  0  0  0
   -6.0957  -16.8066   17.4468 H   0  0  0  0  0  0  0  0  0  0  0  0
   -5.1068  -17.6335   18.5893 H   0  0  0  0  0  0  0  0  0  0  0  0
   -4.9086  -15.2609   16.2895 H   0  0  0  0  0  0  0  0  0  0  0  0
   -5.6471  -13.9833   17.2784 H   0  0  0  0  0  0  0  0  0  0  0  0
   -2.8155  -14.3011   16.3367 H   0  0  0  0  0  0  0  0  0  0  0  0
   -3.6236  -12.8364   16.9353 H   0  0  0  0  0  0  0  0  0  0  0  0
   -3.1840  -13.2409   18.7210 H   0  0  0  0  0  0  0  0  0  0  0  0
   -0.4898  -14.1164   19.8908 H   0  0  0  0  0  0  0  0  0  0  0  0
   -1.8809  -13.5559   21.0021 H   0  0  0  0  0  0  0  0  0  0  0  0
   -0.7312  -11.7725   21.2316 H   0  0  0  0  0  0  0  0  0  0  0  0
    2.0165  -10.9850   20.9600 H   0  0  0  0  0  0  0  0  0  0  0  0
    3.6614   -9.3654   20.2513 H   0  0  0  0  0  0  0  0  0  0  0  0
   -1.1280   -7.0470   16.6976 H   0  0  0  0  0  0  0  0  0  0  0  0
   -1.8826   -9.2213   18.1980 H   0  0  0  0  0  0  0  0  0  0  0  0
   -2.8905  -16.1550   17.5072 H   0  0  0  0  0  0  0  0  0  0  0  0
   -2.9536  -16.5230   19.1275 H   0  0  0  0  0  0  0  0  0  0  0  0
  1  2  1  0
  2  3  1  0
  2  4  1  0
  2  5  1  0
  5  6  1  0
  6  7  1  0
  7  8  1  0
  8  9  1  0
  9 10  1  0
 10 11  1  0
 11 12  1  0
 12 13  2  0
 13 14  1  0
 14 15  2  0
 15 16  1  0
 16 17  2  0
 17 18  1  0
 18 19  2  0
 19 20  1  0
  9 21  1  0
 21  6  1  0
 20 12  1  0
 20 16  1  0
  5 22  1  0
  5 23  1  0
  7 24  1  0
  7 25  1  0
  8 26  1  0
  8 27  1  0
  9 28  1  0
 10 29  1  0
 10 30  1  0
 11 31  1  0
 13 32  1  0
 14 33  1  0
 18 34  1  0
 19 35  1  0
 21 36  1  0
 21 37  1  0
M  END
>  <Energy>  (1373) 
461.49033027731332

>  <compound_id>  (1373) 
8774

>  <target_id>  (1373) 
1

>  <reference_id>  (1373) 
3

>  <inspiration_ids>  (1373) 
[3, 106]

>  <energy_score>  (1373) 
302.81620655914196

>  <distance_score>  (1373) 
14.612059358095584

>  <path>  (1373) 
/opt/xchem-fragalysis-2/maxwin/BulkDock/SCRATCH/511014/C8774-P3/C8774-P3.minimised.mol

>  <scratch_subdir>  (1373) 
/opt/xchem-fragalysis-2/maxwin/BulkDock/SCRATCH/511014/C8774-P3

>  <fragmenstein_runtime>  (1373) 
11.8763108253479

>  <fragmenstein_outcome>  (1373) 
too moved

>  <fragmenstein_mode>  (1373) 
expansion

>  <fragmenstein_error>  (1373) 


$$$$
C8774-P106
     RDKit          3D

 37 39  0  0  0  0  0  0  0  0999 V2000
   -2.1042  -19.4761   27.4311 F   0  0  0  0  0  0  0  0  0  0  0  0
   -1.9197  -18.1744   27.7397 C   0  0  0  0  0  0  0  0  0  0  0  0
   -2.4598  -17.9069   28.9543 F   0  0  0  0  0  0  0  0  0  0  0  0
   -0.5707  -18.0400   27.9031 F   0  0  0  0  0  0  0  0  0  0  0  0
   -2.4339  -17.1518   26.6372 C   0  0  0  0  0  0  0  0  0  0  0  0
   -2.4087  -16.4534   24.9993 N   0  0  0  0  0  0  0  0  0  0  0  0
   -3.1084  -15.3922   24.6450 C   0  0  0  0  0  0  0  0  0  0  0  0
   -1.8781  -14.1412   25.4137 C   0  0  0  0  0  0  0  0  0  0  0  0
   -0.2214  -14.1918   24.3680 C   0  0  0  0  0  0  0  0  0  0  0  0
    1.6633  -13.2694   24.4914 C   0  0  0  0  0  0  0  0  0  0  0  0
    3.2305  -13.7734   23.6492 N   0  0  0  0  0  0  0  0  0  0  0  0
    4.4773  -13.0450   23.0616 C   0  0  0  0  0  0  0  0  0  0  0  0
    4.5938  -12.8293   21.7321 C   0  0  0  0  0  0  0  0  0  0  0  0
    5.7165  -12.0380   21.1383 C   0  0  0  0  0  0  0  0  0  0  0  0
    6.7024  -11.5202   21.7799 N   0  0  0  0  0  0  0  0  0  0  0  0
    6.7437  -11.8790   23.0889 C   0  0  0  0  0  0  0  0  0  0  0  0
    7.6931  -11.5637   23.9431 N   0  0  0  0  0  0  0  0  0  0  0  0
    7.4340  -12.3036   25.0554 C   0  0  0  0  0  0  0  0  0  0  0  0
    6.2798  -13.0414   24.9176 C   0  0  0  0  0  0  0  0  0  0  0  0
    5.7356  -12.6963   23.7056 N   0  0  0  0  0  0  0  0  0  0  0  0
   -1.4118  -15.2551   24.2747 C   0  0  0  0  0  0  0  0  0  0  0  0
   -2.1682  -16.2996   27.2722 H   0  0  0  0  0  0  0  0  0  0  0  0
   -1.7684  -17.8211   26.0731 H   0  0  0  0  0  0  0  0  0  0  0  0
   -3.3450  -15.2050   23.6016 H   0  0  0  0  0  0  0  0  0  0  0  0
   -4.1013  -15.6505   24.8948 H   0  0  0  0  0  0  0  0  0  0  0  0
   -2.3040  -13.1128   25.4717 H   0  0  0  0  0  0  0  0  0  0  0  0
   -1.8975  -14.6235   26.3967 H   0  0  0  0  0  0  0  0  0  0  0  0
   -0.2745  -13.9449   23.3033 H   0  0  0  0  0  0  0  0  0  0  0  0
    1.7653  -13.2873   25.5933 H   0  0  0  0  0  0  0  0  0  0  0  0
    1.7974  -12.2275   24.1417 H   0  0  0  0  0  0  0  0  0  0  0  0
    2.8050  -14.0904   22.7769 H   0  0  0  0  0  0  0  0  0  0  0  0
    3.8571  -13.1793   21.0412 H   0  0  0  0  0  0  0  0  0  0  0  0
    5.6432  -11.8691   20.0509 H   0  0  0  0  0  0  0  0  0  0  0  0
    8.1009  -12.2860   25.9079 H   0  0  0  0  0  0  0  0  0  0  0  0
    5.7861  -13.7467   25.5699 H   0  0  0  0  0  0  0  0  0  0  0  0
   -0.8733  -15.9742   24.5265 H   0  0  0  0  0  0  0  0  0  0  0  0
   -1.5621  -15.1266   23.2299 H   0  0  0  0  0  0  0  0  0  0  0  0
  1  2  1  0
  2  3  1  0
  2  4  1  0
  2  5  1  0
  5  6  1  0
  6  7  1  0
  7  8  1  0
  8  9  1  0
  9 10  1  0
 10 11  1  0
 11 12  1  0
 12 13  2  0
 13 14  1  0
 14 15  2  0
 15 16  1  0
 16 17  2  0
 17 18  1  0
 18 19  2  0
 19 20  1  0
  9 21  1  0
 21  6  1  0
 20 12  1  0
 20 16  1  0
  5 22  1  0
  5 23  1  0
  7 24  1  0
  7 25  1  0
  8 26  1  0
  8 27  1  0
  9 28  1  0
 10 29  1  0
 10 30  1  0
 11 31  1  0
 13 32  1  0
 14 33  1  0
 18 34  1  0
 19 35  1  0
 21 36  1  0
 21 37  1  0
M  END
>  <Energy>  (1374) 
794.06046720088636

>  <compound_id>  (1374) 
8774

>  <target_id>  (1374) 
1

>  <reference_id>  (1374) 
106

>  <inspiration_ids>  (1374) 
[3, 106]

>  <energy_score>  (1374) 
635.3863434827107

>  <distance_score>  (1374) 
14.01094079701807

>  <path>  (1374) 
/opt/xchem-fragalysis-2/maxwin/BulkDock/SCRATCH/511014/C8774-P106/C8774-P106.minimised.mol

>  <scratch_subdir>  (1374) 
/opt/xchem-fragalysis-2/maxwin/BulkDock/SCRATCH/511014/C8774-P106

>  <fragmenstein_runtime>  (1374) 
14.77510690689087

>  <fragmenstein_outcome>  (1374) 
too moved

>  <fragmenstein_mode>  (1374) 
expansion

>  <fragmenstein_error>  (1374) 


$$$$
C8790-P3
     RDKit          3D

 40 42  0  0  0  0  0  0  0  0999 V2000
   -4.5116   -9.1206   28.8903 C   0  0  0  0  0  0  0  0  0  0  0  0
   -4.9052   -9.0831   27.4095 C   0  0  0  0  0  0  0  0  0  0  0  0
   -6.4189   -9.4063   27.3555 C   0  0  0  0  0  0  0  0  0  0  0  0
   -4.5409   -7.8372   26.6365 N   0  0  0  0  0  0  0  0  0  0  0  0
   -4.8189   -7.9641   25.1987 C   0  0  0  0  0  0  0  0  0  0  0  0
   -3.7753   -7.1198   24.4221 C   0  0  0  0  0  0  0  0  0  0  0  0
   -2.7675   -6.5288   25.4258 C   0  0  0  0  0  0  0  0  0  0  0  0
   -1.1465   -6.3800   25.0182 C   0  0  0  0  0  0  0  0  0  0  0  0
   -0.7861   -5.4646   23.8572 N   0  0  0  0  0  0  0  0  0  0  0  0
    0.4060   -4.9595   23.1875 C   0  0  0  0  0  0  0  0  0  0  0  0
    0.2399   -4.0431   22.1989 C   0  0  0  0  0  0  0  0  0  0  0  0
    1.4283   -3.5152   21.4632 C   0  0  0  0  0  0  0  0  0  0  0  0
    2.6585   -3.8548   21.6493 N   0  0  0  0  0  0  0  0  0  0  0  0
    2.8556   -4.7694   22.6380 C   0  0  0  0  0  0  0  0  0  0  0  0
    4.0125   -5.2751   23.0149 N   0  0  0  0  0  0  0  0  0  0  0  0
    3.7322   -6.0901   24.0684 C   0  0  0  0  0  0  0  0  0  0  0  0
    2.3800   -6.1291   24.3291 C   0  0  0  0  0  0  0  0  0  0  0  0
    1.7811   -5.3029   23.4102 N   0  0  0  0  0  0  0  0  0  0  0  0
   -3.1342   -7.3501   26.7292 C   0  0  0  0  0  0  0  0  0  0  0  0
   -3.4311   -8.9944   29.0141 H   0  0  0  0  0  0  0  0  0  0  0  0
   -4.7824  -10.0778   29.3492 H   0  0  0  0  0  0  0  0  0  0  0  0
   -5.0067   -8.3192   29.4493 H   0  0  0  0  0  0  0  0  0  0  0  0
   -4.3340   -9.8869   26.9680 H   0  0  0  0  0  0  0  0  0  0  0  0
   -6.9920   -8.6397   27.8899 H   0  0  0  0  0  0  0  0  0  0  0  0
   -6.7995   -9.4331   26.3307 H   0  0  0  0  0  0  0  0  0  0  0  0
   -6.6337  -10.3725   27.8243 H   0  0  0  0  0  0  0  0  0  0  0  0
   -4.7730   -8.9998   24.8465 H   0  0  0  0  0  0  0  0  0  0  0  0
   -5.8278   -7.5962   24.9816 H   0  0  0  0  0  0  0  0  0  0  0  0
   -3.2947   -7.7301   23.6644 H   0  0  0  0  0  0  0  0  0  0  0  0
   -4.2778   -6.3037   23.8892 H   0  0  0  0  0  0  0  0  0  0  0  0
   -3.0914   -5.4940   25.6123 H   0  0  0  0  0  0  0  0  0  0  0  0
   -0.7396   -7.3667   24.8090 H   0  0  0  0  0  0  0  0  0  0  0  0
   -0.6395   -5.9904   25.9079 H   0  0  0  0  0  0  0  0  0  0  0  0
   -1.6174   -4.9617   23.5470 H   0  0  0  0  0  0  0  0  0  0  0  0
   -0.7258   -3.6667   21.8898 H   0  0  0  0  0  0  0  0  0  0  0  0
    1.1941   -2.7710   20.6835 H   0  0  0  0  0  0  0  0  0  0  0  0
    4.5193   -6.6173   24.5924 H   0  0  0  0  0  0  0  0  0  0  0  0
    1.8042   -6.6555   25.0738 H   0  0  0  0  0  0  0  0  0  0  0  0
   -2.4358   -8.1587   26.8603 H   0  0  0  0  0  0  0  0  0  0  0  0
   -3.0331   -6.7005   27.6058 H   0  0  0  0  0  0  0  0  0  0  0  0
  1  2  1  0
  2  3  1  0
  2  4  1  0
  4  5  1  0
  5  6  1  0
  6  7  1  0
  7  8  1  0
  8  9  1  0
  9 10  1  0
 10 11  2  0
 11 12  1  0
 12 13  2  0
 13 14  1  0
 14 15  2  0
 15 16  1  0
 16 17  2  0
 17 18  1  0
  7 19  1  0
 19  4  1  0
 18 10  1  0
 18 14  1  0
  1 20  1  0
  1 21  1  0
  1 22  1  0
  2 23  1  0
  3 24  1  0
  3 25  1  0
  3 26  1  0
  5 27  1  0
  5 28  1  0
  6 29  1  0
  6 30  1  0
  7 31  1  0
  8 32  1  0
  8 33  1  0
  9 34  1  0
 11 35  1  0
 12 36  1  0
 16 37  1  0
 17 38  1  0
 19 39  1  0
 19 40  1  0
M  END
>  <Energy>  (1375) 
85.445150778081256

>  <compound_id>  (1375) 
8790

>  <target_id>  (1375) 
1

>  <reference_id>  (1375) 
3

>  <inspiration_ids>  (1375) 
[3, 106]

>  <energy_score>  (1375) 
-13.121254728788813

>  <distance_score>  (1375) 
14.97214372221793

>  <path>  (1375) 
/opt/xchem-fragalysis-2/maxwin/BulkDock/SCRATCH/511014/C8790-P3/C8790-P3.minimised.mol

>  <scratch_subdir>  (1375) 
/opt/xchem-fragalysis-2/maxwin/BulkDock/SCRATCH/511014/C8790-P3

>  <fragmenstein_runtime>  (1375) 
19.20726776123047

>  <fragmenstein_outcome>  (1375) 
too moved

>  <fragmenstein_mode>  (1375) 
expansion

>  <fragmenstein_error>  (1375) 


$$$$
C8790-P106
     RDKit          3D

 40 42  0  0  0  0  0  0  0  0999 V2000
   -5.2765  -20.1586   19.0986 C   0  0  0  0  0  0  0  0  0  0  0  0
   -5.1224  -18.6295   19.3074 C   0  0  0  0  0  0  0  0  0  0  0  0
   -6.2180  -18.2976   20.3491 C   0  0  0  0  0  0  0  0  0  0  0  0
   -3.6731  -18.3017   19.5359 N   0  0  0  0  0  0  0  0  0  0  0  0
   -2.8326  -18.7151   18.4892 C   0  0  0  0  0  0  0  0  0  0  0  0
   -1.6065  -17.9216   18.9671 C   0  0  0  0  0  0  0  0  0  0  0  0
   -1.4343  -16.4193   19.5789 C   0  0  0  0  0  0  0  0  0  0  0  0
    0.5980  -16.2619   19.6292 C   0  0  0  0  0  0  0  0  0  0  0  0
    1.9491  -15.1544   18.5944 N   0  0  0  0  0  0  0  0  0  0  0  0
    3.2008  -15.1042   17.6341 C   0  0  0  0  0  0  0  0  0  0  0  0
    4.4104  -15.6726   17.8695 C   0  0  0  0  0  0  0  0  0  0  0  0
    5.6616  -14.9260   17.4662 C   0  0  0  0  0  0  0  0  0  0  0  0
    5.7441  -13.8244   16.7984 N   0  0  0  0  0  0  0  0  0  0  0  0
    4.5571  -13.3886   16.3132 C   0  0  0  0  0  0  0  0  0  0  0  0
    4.3606  -12.3918   15.4721 N   0  0  0  0  0  0  0  0  0  0  0  0
    3.0687  -12.5129   15.0634 C   0  0  0  0  0  0  0  0  0  0  0  0
    2.4394  -13.5515   15.7168 C   0  0  0  0  0  0  0  0  0  0  0  0
    3.3374  -14.0338   16.6483 N   0  0  0  0  0  0  0  0  0  0  0  0
   -3.0425  -16.9542   19.8746 C   0  0  0  0  0  0  0  0  0  0  0  0
   -4.7263  -20.5042   18.2173 H   0  0  0  0  0  0  0  0  0  0  0  0
   -4.9104  -20.7170   19.9658 H   0  0  0  0  0  0  0  0  0  0  0  0
   -6.3220  -20.4248   18.9109 H   0  0  0  0  0  0  0  0  0  0  0  0
   -5.4203  -18.1312   18.3758 H   0  0  0  0  0  0  0  0  0  0  0  0
   -7.2022  -18.4987   19.9112 H   0  0  0  0  0  0  0  0  0  0  0  0
   -6.1504  -18.8912   21.2647 H   0  0  0  0  0  0  0  0  0  0  0  0
   -6.2172  -17.2483   20.5961 H   0  0  0  0  0  0  0  0  0  0  0  0
   -2.6376  -19.7913   18.5034 H   0  0  0  0  0  0  0  0  0  0  0  0
   -3.2273  -18.4698   17.5033 H   0  0  0  0  0  0  0  0  0  0  0  0
   -0.8629  -18.2025   18.2331 H   0  0  0  0  0  0  0  0  0  0  0  0
   -1.4796  -18.3253   19.9746 H   0  0  0  0  0  0  0  0  0  0  0  0
   -1.6889  -15.5412   18.9777 H   0  0  0  0  0  0  0  0  0  0  0  0
    0.7784  -16.1682   20.6725 H   0  0  0  0  0  0  0  0  0  0  0  0
    0.8303  -17.1971   19.1309 H   0  0  0  0  0  0  0  0  0  0  0  0
    2.5031  -14.8283   19.4335 H   0  0  0  0  0  0  0  0  0  0  0  0
    4.6061  -16.4700   18.5588 H   0  0  0  0  0  0  0  0  0  0  0  0
    6.5933  -15.3718   17.8547 H   0  0  0  0  0  0  0  0  0  0  0  0
    2.6550  -11.8599   14.3053 H   0  0  0  0  0  0  0  0  0  0  0  0
    1.4426  -13.9619   15.6391 H   0  0  0  0  0  0  0  0  0  0  0  0
   -3.4922  -16.5142   19.0087 H   0  0  0  0  0  0  0  0  0  0  0  0
   -3.4300  -16.5648   20.7914 H   0  0  0  0  0  0  0  0  0  0  0  0
  1  2  1  0
  2  3  1  0
  2  4  1  0
  4  5  1  0
  5  6  1  0
  6  7  1  0
  7  8  1  0
  8  9  1  0
  9 10  1  0
 10 11  2  0
 11 12  1  0
 12 13  2  0
 13 14  1  0
 14 15  2  0
 15 16  1  0
 16 17  2  0
 17 18  1  0
  7 19  1  0
 19  4  1  0
 18 10  1  0
 18 14  1  0
  1 20  1  0
  1 21  1  0
  1 22  1  0
  2 23  1  0
  3 24  1  0
  3 25  1  0
  3 26  1  0
  5 27  1  0
  5 28  1  0
  6 29  1  0
  6 30  1  0
  7 31  1  0
  8 32  1  0
  8 33  1  0
  9 34  1  0
 11 35  1  0
 12 36  1  0
 16 37  1  0
 17 38  1  0
 19 39  1  0
 19 40  1  0
M  END
>  <Energy>  (1376) 
436.31100710464307

>  <compound_id>  (1376) 
8790

>  <target_id>  (1376) 
1

>  <reference_id>  (1376) 
106

>  <inspiration_ids>  (1376) 
[3, 106]

>  <energy_score>  (1376) 
337.7446015977737

>  <distance_score>  (1376) 
14.888351562159846

>  <path>  (1376) 
/opt/xchem-fragalysis-2/maxwin/BulkDock/SCRATCH/511014/C8790-P106/C8790-P106.minimised.mol

>  <scratch_subdir>  (1376) 
/opt/xchem-fragalysis-2/maxwin/BulkDock/SCRATCH/511014/C8790-P106

>  <fragmenstein_runtime>  (1376) 
20.00207281112671

>  <fragmenstein_outcome>  (1376) 
too moved

>  <fragmenstein_mode>  (1376) 
expansion

>  <fragmenstein_error>  (1376) 


$$$$
C8788-P106
     RDKit          2D

  0  0  0  0  0  0  0  0  0  0999 V2000
M  END
>  <compound_id>  (1377) 
8788

>  <target_id>  (1377) 
1

>  <reference_id>  (1377) 
106

>  <inspiration_ids>  (1377) 
[3, 106]

>  <energy_score>  (1377) 
nan

>  <distance_score>  (1377) 
nan

>  <path>  (1377) 
/opt/xchem-fragalysis-2/maxwin/BulkDock/SCRATCH/511014/C8788-P106/C8788-P106.minimised.mol

>  <scratch_subdir>  (1377) 
/opt/xchem-fragalysis-2/maxwin/BulkDock/SCRATCH/511014/C8788-P106

>  <fragmenstein_runtime>  (1377) 
2.3958535194396973

>  <fragmenstein_outcome>  (1377) 
too distant

>  <fragmenstein_mode>  (1377) 
expansion

>  <fragmenstein_error>  (1377) 
DistanceError: hit1

$$$$
C8793-P106
     RDKit          2D

  0  0  0  0  0  0  0  0  0  0999 V2000
M  END
>  <compound_id>  (1378) 
8793

>  <target_id>  (1378) 
1

>  <reference_id>  (1378) 
106

>  <inspiration_ids>  (1378) 
[3, 106]

>  <energy_score>  (1378) 
nan

>  <distance_score>  (1378) 
nan

>  <path>  (1378) 
/opt/xchem-fragalysis-2/maxwin/BulkDock/SCRATCH/511014/C8793-P106/C8793-P106.minimised.mol

>  <scratch_subdir>  (1378) 
/opt/xchem-fragalysis-2/maxwin/BulkDock/SCRATCH/511014/C8793-P106

>  <fragmenstein_runtime>  (1378) 
0.23629355430603027

>  <fragmenstein_outcome>  (1378) 
too distant

>  <fragmenstein_mode>  (1378) 
expansion

>  <fragmenstein_error>  (1378) 
DistanceError: hit0

$$$$
C8795-P106
     RDKit          2D

  0  0  0  0  0  0  0  0  0  0999 V2000
M  END
>  <compound_id>  (1379) 
8795

>  <target_id>  (1379) 
1

>  <reference_id>  (1379) 
106

>  <inspiration_ids>  (1379) 
[3, 106]

>  <energy_score>  (1379) 
nan

>  <distance_score>  (1379) 
nan

>  <path>  (1379) 
/opt/xchem-fragalysis-2/maxwin/BulkDock/SCRATCH/511014/C8795-P106/C8795-P106.minimised.mol

>  <scratch_subdir>  (1379) 
/opt/xchem-fragalysis-2/maxwin/BulkDock/SCRATCH/511014/C8795-P106

>  <fragmenstein_runtime>  (1379) 
0.43323850631713867

>  <fragmenstein_outcome>  (1379) 
too distant

>  <fragmenstein_mode>  (1379) 
expansion

>  <fragmenstein_error>  (1379) 
DistanceError: hit0+hit1

$$$$
C8796-P3
     RDKit          3D

 39 41  0  0  0  0  0  0  0  0999 V2000
    6.9529   -8.5680   22.7000 O   0  0  0  0  0  0  0  0  0  0  0  0
    7.6197   -8.9316   21.7771 C   0  0  0  0  0  0  0  0  0  0  0  0
    7.7647  -10.2270   21.1798 N   0  0  0  0  0  0  0  0  0  0  0  0
    7.2171  -11.5421   21.5707 C   0  0  0  0  0  0  0  0  0  0  0  0
    5.6447  -11.8042   21.7253 C   0  0  0  0  0  0  0  0  0  0  0  0
    4.7746  -11.4953   20.5140 C   0  0  0  0  0  0  0  0  0  0  0  0
    4.7605  -12.8219   19.8433 C   0  0  0  0  0  0  0  0  0  0  0  0
    5.4738  -13.6286   20.8934 C   0  0  0  0  0  0  0  0  0  0  0  0
    5.1502  -13.2137   22.2817 N   0  0  0  0  0  0  0  0  0  0  0  0
    5.7965  -13.5135   23.5207 C   0  0  0  0  0  0  0  0  0  0  0  0
    6.8213  -14.1056   23.7457 O   0  0  0  0  0  0  0  0  0  0  0  0
    4.9025  -13.0441   24.6965 C   0  0  0  0  0  0  0  0  0  0  0  0
    3.9731  -14.0540   25.1179 O   0  0  0  0  0  0  0  0  0  0  0  0
    8.6000   -7.8605   21.1435 C   0  0  0  0  0  0  0  0  0  0  0  0
    8.9582   -6.6935   22.0366 C   0  0  0  0  0  0  0  0  0  0  0  0
    9.8366   -5.8050   21.5465 C   0  0  0  0  0  0  0  0  0  0  0  0
   10.3507   -5.9951   20.2777 N   0  0  0  0  0  0  0  0  0  0  0  0
   11.2292   -5.2289   19.5600 C   0  0  0  0  0  0  0  0  0  0  0  0
   11.3471   -5.8598   18.3471 C   0  0  0  0  0  0  0  0  0  0  0  0
   10.5517   -6.9781   18.3014 N   0  0  0  0  0  0  0  0  0  0  0  0
    9.9769   -7.0800   19.4845 C   0  0  0  0  0  0  0  0  0  0  0  0
    9.0749   -8.0233   19.9330 N   0  0  0  0  0  0  0  0  0  0  0  0
    8.3591  -10.1474   20.3537 H   0  0  0  0  0  0  0  0  0  0  0  0
    7.6794  -11.7565   22.5410 H   0  0  0  0  0  0  0  0  0  0  0  0
    7.6708  -12.2288   20.8528 H   0  0  0  0  0  0  0  0  0  0  0  0
    5.3492  -11.0980   22.5132 H   0  0  0  0  0  0  0  0  0  0  0  0
    5.1633  -10.6881   19.8880 H   0  0  0  0  0  0  0  0  0  0  0  0
    3.7551  -11.2465   20.8199 H   0  0  0  0  0  0  0  0  0  0  0  0
    3.7433  -13.1553   19.6427 H   0  0  0  0  0  0  0  0  0  0  0  0
    5.3111  -12.8282   18.8977 H   0  0  0  0  0  0  0  0  0  0  0  0
    5.0826  -14.6548   20.8314 H   0  0  0  0  0  0  0  0  0  0  0  0
    6.5439  -13.8007   20.7315 H   0  0  0  0  0  0  0  0  0  0  0  0
    4.3338  -12.1564   24.4086 H   0  0  0  0  0  0  0  0  0  0  0  0
    5.5409  -12.7684   25.5421 H   0  0  0  0  0  0  0  0  0  0  0  0
    4.4997  -14.7418   25.5621 H   0  0  0  0  0  0  0  0  0  0  0  0
    8.5109   -6.6200   23.0199 H   0  0  0  0  0  0  0  0  0  0  0  0
   10.1663   -4.9326   22.0977 H   0  0  0  0  0  0  0  0  0  0  0  0
   11.6755   -4.3280   19.9570 H   0  0  0  0  0  0  0  0  0  0  0  0
   11.9515   -5.5617   17.4995 H   0  0  0  0  0  0  0  0  0  0  0  0
  1  2  2  0
  2  3  1  0
  3  4  1  0
  4  5  1  0
  5  6  1  0
  6  7  1  0
  7  8  1  0
  8  9  1  0
  9 10  1  0
 10 11  2  0
 10 12  1  0
 12 13  1  0
  2 14  1  0
 14 15  1  0
 15 16  2  0
 16 17  1  0
 17 18  1  0
 18 19  2  0
 19 20  1  0
 20 21  2  0
 21 22  1  0
  9  5  1  0
 22 14  2  0
 21 17  1  0
  3 23  1  0
  4 24  1  0
  4 25  1  0
  5 26  1  0
  6 27  1  0
  6 28  1  0
  7 29  1  0
  7 30  1  0
  8 31  1  0
  8 32  1  0
 12 33  1  0
 12 34  1  0
 13 35  1  0
 15 36  1  0
 16 37  1  0
 18 38  1  0
 19 39  1  0
M  END
>  <Energy>  (1380) 
159.96464912848359

>  <compound_id>  (1380) 
8796

>  <target_id>  (1380) 
1

>  <reference_id>  (1380) 
3

>  <inspiration_ids>  (1380) 
[3, 106]

>  <energy_score>  (1380) 
25.60636107489256

>  <distance_score>  (1380) 
15.081714692543589

>  <path>  (1380) 
/opt/xchem-fragalysis-2/maxwin/BulkDock/SCRATCH/511014/C8796-P3/C8796-P3.minimised.mol

>  <scratch_subdir>  (1380) 
/opt/xchem-fragalysis-2/maxwin/BulkDock/SCRATCH/511014/C8796-P3

>  <fragmenstein_runtime>  (1380) 
27.344101190567017

>  <fragmenstein_outcome>  (1380) 
too moved

>  <fragmenstein_mode>  (1380) 
expansion

>  <fragmenstein_error>  (1380) 


$$$$
C8796-P106
     RDKit          3D

 39 41  0  0  0  0  0  0  0  0999 V2000
    7.7565  -13.7606   21.0359 O   0  0  0  0  0  0  0  0  0  0  0  0
    7.5288  -13.8706   19.8685 C   0  0  0  0  0  0  0  0  0  0  0  0
    6.8581  -14.9099   19.1368 N   0  0  0  0  0  0  0  0  0  0  0  0
    6.3298  -16.2046   19.5732 C   0  0  0  0  0  0  0  0  0  0  0  0
    4.8691  -16.2773   20.1733 C   0  0  0  0  0  0  0  0  0  0  0  0
    3.7630  -15.6166   19.3388 C   0  0  0  0  0  0  0  0  0  0  0  0
    3.0419  -16.8079   18.8072 C   0  0  0  0  0  0  0  0  0  0  0  0
    4.0056  -17.8612   19.2769 C   0  0  0  0  0  0  0  0  0  0  0  0
    4.3542  -17.6847   20.7143 N   0  0  0  0  0  0  0  0  0  0  0  0
    5.3615  -18.3090   21.5151 C   0  0  0  0  0  0  0  0  0  0  0  0
    6.2431  -19.0709   21.2097 O   0  0  0  0  0  0  0  0  0  0  0  0
    5.1376  -17.9663   23.0160 C   0  0  0  0  0  0  0  0  0  0  0  0
    4.1883  -18.8211   23.6738 O   0  0  0  0  0  0  0  0  0  0  0  0
    8.1226  -12.7870   18.9172 C   0  0  0  0  0  0  0  0  0  0  0  0
    9.5148  -12.3113   19.2611 C   0  0  0  0  0  0  0  0  0  0  0  0
   10.1601  -11.6602   18.2824 C   0  0  0  0  0  0  0  0  0  0  0  0
    9.4889  -11.3903   17.0989 N   0  0  0  0  0  0  0  0  0  0  0  0
    9.9462  -10.8577   15.9241 C   0  0  0  0  0  0  0  0  0  0  0  0
    8.8400  -10.7871   15.1137 C   0  0  0  0  0  0  0  0  0  0  0  0
    7.7322  -11.2927   15.7414 N   0  0  0  0  0  0  0  0  0  0  0  0
    8.1425  -11.7027   16.9226 C   0  0  0  0  0  0  0  0  0  0  0  0
    7.4586  -12.4478   17.8472 N   0  0  0  0  0  0  0  0  0  0  0  0
    6.9214  -14.7077   18.1392 H   0  0  0  0  0  0  0  0  0  0  0  0
    6.4486  -16.8612   18.7081 H   0  0  0  0  0  0  0  0  0  0  0  0
    7.0296  -16.5630   20.3366 H   0  0  0  0  0  0  0  0  0  0  0  0
    4.9496  -15.6748   21.0910 H   0  0  0  0  0  0  0  0  0  0  0  0
    3.1088  -15.0067   19.9641 H   0  0  0  0  0  0  0  0  0  0  0  0
    4.1593  -14.9749   18.5463 H   0  0  0  0  0  0  0  0  0  0  0  0
    2.9312  -16.7969   17.7196 H   0  0  0  0  0  0  0  0  0  0  0  0
    2.0514  -16.9213   19.2582 H   0  0  0  0  0  0  0  0  0  0  0  0
    4.8693  -18.0505   18.6284 H   0  0  0  0  0  0  0  0  0  0  0  0
    3.4811  -18.8268   19.2487 H   0  0  0  0  0  0  0  0  0  0  0  0
    4.8049  -16.9312   23.1242 H   0  0  0  0  0  0  0  0  0  0  0  0
    6.0970  -18.0519   23.5373 H   0  0  0  0  0  0  0  0  0  0  0  0
    4.5078  -19.7287   23.5184 H   0  0  0  0  0  0  0  0  0  0  0  0
    9.9513  -12.5788   20.2142 H   0  0  0  0  0  0  0  0  0  0  0  0
   11.1883  -11.3321   18.3598 H   0  0  0  0  0  0  0  0  0  0  0  0
   10.9764  -10.5664   15.7860 H   0  0  0  0  0  0  0  0  0  0  0  0
    8.7682  -10.4179   14.1033 H   0  0  0  0  0  0  0  0  0  0  0  0
  1  2  2  0
  2  3  1  0
  3  4  1  0
  4  5  1  0
  5  6  1  0
  6  7  1  0
  7  8  1  0
  8  9  1  0
  9 10  1  0
 10 11  2  0
 10 12  1  0
 12 13  1  0
  2 14  1  0
 14 15  1  0
 15 16  2  0
 16 17  1  0
 17 18  1  0
 18 19  2  0
 19 20  1  0
 20 21  2  0
 21 22  1  0
  9  5  1  0
 22 14  2  0
 21 17  1  0
  3 23  1  0
  4 24  1  0
  4 25  1  0
  5 26  1  0
  6 27  1  0
  6 28  1  0
  7 29  1  0
  7 30  1  0
  8 31  1  0
  8 32  1  0
 12 33  1  0
 12 34  1  0
 13 35  1  0
 15 36  1  0
 16 37  1  0
 18 38  1  0
 19 39  1  0
M  END
>  <Energy>  (1381) 
159.66572425155999

>  <compound_id>  (1381) 
8796

>  <target_id>  (1381) 
1

>  <reference_id>  (1381) 
106

>  <inspiration_ids>  (1381) 
[3, 106]

>  <energy_score>  (1381) 
25.307436197968286

>  <distance_score>  (1381) 
15.470190146892618

>  <path>  (1381) 
/opt/xchem-fragalysis-2/maxwin/BulkDock/SCRATCH/511014/C8796-P106/C8796-P106.minimised.mol

>  <scratch_subdir>  (1381) 
/opt/xchem-fragalysis-2/maxwin/BulkDock/SCRATCH/511014/C8796-P106

>  <fragmenstein_runtime>  (1381) 
37.44505429267883

>  <fragmenstein_outcome>  (1381) 
too moved

>  <fragmenstein_mode>  (1381) 
expansion

>  <fragmenstein_error>  (1381) 


$$$$
C8797-P3
     RDKit          3D

 42 44  0  0  0  0  0  0  0  0999 V2000
    0.2941  -18.0937   16.5321 C   0  0  0  0  0  0  0  0  0  0  0  0
    0.3334  -16.7672   17.5537 N   0  0  0  0  0  0  0  0  0  0  0  0
   -0.4040  -17.0881   19.6404 C   0  0  0  0  0  0  0  0  0  0  0  0
   -1.1913  -18.1647   21.5844 C   0  0  0  0  0  0  0  0  0  0  0  0
   -0.7077  -19.9670   22.3374 C   0  0  0  0  0  0  0  0  0  0  0  0
   -1.5214  -21.1824   21.7050 C   0  0  0  0  0  0  0  0  0  0  0  0
   -2.2180  -20.0017   20.9527 C   0  0  0  0  0  0  0  0  0  0  0  0
   -2.8454  -19.4931   21.9839 N   0  0  0  0  0  0  0  0  0  0  0  0
   -3.1603  -20.1667   23.2932 C   0  0  0  0  0  0  0  0  0  0  0  0
   -2.8304  -21.2359   23.7259 O   0  0  0  0  0  0  0  0  0  0  0  0
   -4.1868  -19.5026   24.2521 C   0  0  0  0  0  0  0  0  0  0  0  0
   -4.5791  -20.1275   25.5353 O   0  0  0  0  0  0  0  0  0  0  0  0
    1.1101  -15.0578   16.5105 C   0  0  0  0  0  0  0  0  0  0  0  0
    0.5007  -14.2150   15.8712 O   0  0  0  0  0  0  0  0  0  0  0  0
    2.9684  -14.6803   16.2719 C   0  0  0  0  0  0  0  0  0  0  0  0
    2.8147  -13.4023   15.2136 C   0  0  0  0  0  0  0  0  0  0  0  0
    3.8083  -12.5634   14.8952 C   0  0  0  0  0  0  0  0  0  0  0  0
    5.0641  -12.8418   15.3365 N   0  0  0  0  0  0  0  0  0  0  0  0
    6.2312  -12.1385   15.1706 C   0  0  0  0  0  0  0  0  0  0  0  0
    7.2049  -12.9664   15.6619 C   0  0  0  0  0  0  0  0  0  0  0  0
    6.6498  -14.1367   16.1337 N   0  0  0  0  0  0  0  0  0  0  0  0
    5.3317  -14.0379   15.9783 C   0  0  0  0  0  0  0  0  0  0  0  0
    4.3172  -14.9018   16.4094 N   0  0  0  0  0  0  0  0  0  0  0  0
    0.5063  -17.9948   15.4569 H   0  0  0  0  0  0  0  0  0  0  0  0
   -0.7236  -18.5055   16.5178 H   0  0  0  0  0  0  0  0  0  0  0  0
    1.2124  -18.6745   16.6656 H   0  0  0  0  0  0  0  0  0  0  0  0
   -0.5481  -16.0312   19.8163 H   0  0  0  0  0  0  0  0  0  0  0  0
   -1.3992  -17.2674   19.1696 H   0  0  0  0  0  0  0  0  0  0  0  0
   -0.4412  -17.8563   22.2836 H   0  0  0  0  0  0  0  0  0  0  0  0
    0.2453  -20.4394   22.1179 H   0  0  0  0  0  0  0  0  0  0  0  0
   -0.8769  -20.0480   23.3803 H   0  0  0  0  0  0  0  0  0  0  0  0
   -2.1362  -21.9421   22.1702 H   0  0  0  0  0  0  0  0  0  0  0  0
   -0.8513  -21.9067   21.1849 H   0  0  0  0  0  0  0  0  0  0  0  0
   -2.4394  -19.8198   19.8543 H   0  0  0  0  0  0  0  0  0  0  0  0
   -3.0555  -20.7130   20.7114 H   0  0  0  0  0  0  0  0  0  0  0  0
   -5.0173  -19.8782   23.6488 H   0  0  0  0  0  0  0  0  0  0  0  0
   -4.2513  -18.4323   24.3104 H   0  0  0  0  0  0  0  0  0  0  0  0
   -4.5721  -19.3990   26.2000 H   0  0  0  0  0  0  0  0  0  0  0  0
    1.8542  -13.2168   14.7585 H   0  0  0  0  0  0  0  0  0  0  0  0
    3.6724  -11.6969   14.2617 H   0  0  0  0  0  0  0  0  0  0  0  0
    6.2555  -11.1629   14.7085 H   0  0  0  0  0  0  0  0  0  0  0  0
    8.2730  -12.7993   15.6983 H   0  0  0  0  0  0  0  0  0  0  0  0
  1  2  1  0
  2  3  1  0
  3  4  1  0
  4  5  1  0
  5  6  1  0
  6  7  1  0
  7  8  1  0
  8  9  1  0
  9 10  2  0
  9 11  1  0
 11 12  1  0
  2 13  1  0
 13 14  2  0
 13 15  1  0
 15 16  1  0
 16 17  2  0
 17 18  1  0
 18 19  1  0
 19 20  2  0
 20 21  1  0
 21 22  2  0
 22 23  1  0
  8  4  1  0
 23 15  2  0
 22 18  1  0
  1 24  1  0
  1 25  1  0
  1 26  1  0
  3 27  1  0
  3 28  1  0
  4 29  1  0
  5 30  1  0
  5 31  1  0
  6 32  1  0
  6 33  1  0
  7 34  1  0
  7 35  1  0
 11 36  1  0
 11 37  1  0
 12 38  1  0
 16 39  1  0
 17 40  1  0
 19 41  1  0
 20 42  1  0
M  END
>  <Energy>  (1382) 
1462.7465467124348

>  <compound_id>  (1382) 
8797

>  <target_id>  (1382) 
1

>  <reference_id>  (1382) 
3

>  <inspiration_ids>  (1382) 
[3, 106]

>  <energy_score>  (1382) 
1296.8427056307924

>  <distance_score>  (1382) 
13.752299622098064

>  <path>  (1382) 
/opt/xchem-fragalysis-2/maxwin/BulkDock/SCRATCH/511014/C8797-P3/C8797-P3.minimised.mol

>  <scratch_subdir>  (1382) 
/opt/xchem-fragalysis-2/maxwin/BulkDock/SCRATCH/511014/C8797-P3

>  <fragmenstein_runtime>  (1382) 
13.645012855529785

>  <fragmenstein_outcome>  (1382) 
too moved

>  <fragmenstein_mode>  (1382) 
expansion

>  <fragmenstein_error>  (1382) 


$$$$
C8797-P106
     RDKit          3D

 42 44  0  0  0  0  0  0  0  0999 V2000
   -1.0982   -4.7650   20.8804 C   0  0  0  0  0  0  0  0  0  0  0  0
    0.0082   -5.5940   21.3012 N   0  0  0  0  0  0  0  0  0  0  0  0
    0.0475   -7.0397   21.0543 C   0  0  0  0  0  0  0  0  0  0  0  0
   -1.2077   -8.0109   20.8541 C   0  0  0  0  0  0  0  0  0  0  0  0
   -2.1088   -7.6532   19.6740 C   0  0  0  0  0  0  0  0  0  0  0  0
   -3.1490   -8.7167   19.7759 C   0  0  0  0  0  0  0  0  0  0  0  0
   -2.6418   -9.4122   21.0024 C   0  0  0  0  0  0  0  0  0  0  0  0
   -2.0961   -8.4973   22.0634 N   0  0  0  0  0  0  0  0  0  0  0  0
   -2.6885   -7.3836   22.7261 C   0  0  0  0  0  0  0  0  0  0  0  0
   -3.7449   -6.8340   22.5424 O   0  0  0  0  0  0  0  0  0  0  0  0
   -1.8288   -6.9420   23.9073 C   0  0  0  0  0  0  0  0  0  0  0  0
   -2.3597   -7.6798   25.0395 O   0  0  0  0  0  0  0  0  0  0  0  0
    1.0699   -4.9620   21.9685 C   0  0  0  0  0  0  0  0  0  0  0  0
    1.0731   -4.8466   23.1927 O   0  0  0  0  0  0  0  0  0  0  0  0
    2.2298   -4.2729   21.1729 C   0  0  0  0  0  0  0  0  0  0  0  0
    3.5580   -4.1986   21.9037 C   0  0  0  0  0  0  0  0  0  0  0  0
    4.4514   -3.3149   21.4303 C   0  0  0  0  0  0  0  0  0  0  0  0
    4.1389   -2.5944   20.2904 N   0  0  0  0  0  0  0  0  0  0  0  0
    4.7815   -1.5305   19.7098 C   0  0  0  0  0  0  0  0  0  0  0  0
    4.0713   -1.2630   18.5663 C   0  0  0  0  0  0  0  0  0  0  0  0
    2.9848   -2.0938   18.4638 N   0  0  0  0  0  0  0  0  0  0  0  0
    2.9815   -2.8429   19.5523 C   0  0  0  0  0  0  0  0  0  0  0  0
    1.9988   -3.6842   20.0266 N   0  0  0  0  0  0  0  0  0  0  0  0
   -2.0151   -5.0934   21.3690 H   0  0  0  0  0  0  0  0  0  0  0  0
   -1.1953   -4.8296   19.7938 H   0  0  0  0  0  0  0  0  0  0  0  0
   -0.9183   -3.7200   21.1529 H   0  0  0  0  0  0  0  0  0  0  0  0
    0.6793   -7.4766   21.8385 H   0  0  0  0  0  0  0  0  0  0  0  0
    0.6266   -7.1159   20.1247 H   0  0  0  0  0  0  0  0  0  0  0  0
   -0.6132   -8.8977   20.5925 H   0  0  0  0  0  0  0  0  0  0  0  0
   -1.5678   -7.6820   18.7231 H   0  0  0  0  0  0  0  0  0  0  0  0
   -2.5759   -6.6717   19.7737 H   0  0  0  0  0  0  0  0  0  0  0  0
   -4.1431   -8.2832   19.9276 H   0  0  0  0  0  0  0  0  0  0  0  0
   -3.1844   -9.3795   18.9068 H   0  0  0  0  0  0  0  0  0  0  0  0
   -3.5183   -9.8703   21.4748 H   0  0  0  0  0  0  0  0  0  0  0  0
   -1.9696  -10.2620   20.8061 H   0  0  0  0  0  0  0  0  0  0  0  0
   -1.9315   -5.8689   24.0868 H   0  0  0  0  0  0  0  0  0  0  0  0
   -0.7758   -7.1992   23.7870 H   0  0  0  0  0  0  0  0  0  0  0  0
   -3.2914   -7.3924   25.1145 H   0  0  0  0  0  0  0  0  0  0  0  0
    3.6962   -4.7813   22.8045 H   0  0  0  0  0  0  0  0  0  0  0  0
    5.4016   -3.1150   21.9067 H   0  0  0  0  0  0  0  0  0  0  0  0
    5.6650   -1.0864   20.1394 H   0  0  0  0  0  0  0  0  0  0  0  0
    4.2722   -0.5129   17.8125 H   0  0  0  0  0  0  0  0  0  0  0  0
  1  2  1  0
  2  3  1  0
  3  4  1  0
  4  5  1  0
  5  6  1  0
  6  7  1  0
  7  8  1  0
  8  9  1  0
  9 10  2  0
  9 11  1  0
 11 12  1  0
  2 13  1  0
 13 14  2  0
 13 15  1  0
 15 16  1  0
 16 17  2  0
 17 18  1  0
 18 19  1  0
 19 20  2  0
 20 21  1  0
 21 22  2  0
 22 23  1  0
  8  4  1  0
 23 15  2  0
 22 18  1  0
  1 24  1  0
  1 25  1  0
  1 26  1  0
  3 27  1  0
  3 28  1  0
  4 29  1  0
  5 30  1  0
  5 31  1  0
  6 32  1  0
  6 33  1  0
  7 34  1  0
  7 35  1  0
 11 36  1  0
 11 37  1  0
 12 38  1  0
 16 39  1  0
 17 40  1  0
 19 41  1  0
 20 42  1  0
M  END
>  <Energy>  (1383) 
198.06906616804088

>  <compound_id>  (1383) 
8797

>  <target_id>  (1383) 
1

>  <reference_id>  (1383) 
106

>  <inspiration_ids>  (1383) 
[3, 106]

>  <energy_score>  (1383) 
32.165225086397754

>  <distance_score>  (1383) 
14.98316443833199

>  <path>  (1383) 
/opt/xchem-fragalysis-2/maxwin/BulkDock/SCRATCH/511014/C8797-P106/C8797-P106.minimised.mol

>  <scratch_subdir>  (1383) 
/opt/xchem-fragalysis-2/maxwin/BulkDock/SCRATCH/511014/C8797-P106

>  <fragmenstein_runtime>  (1383) 
37.64946150779724

>  <fragmenstein_outcome>  (1383) 
too moved

>  <fragmenstein_mode>  (1383) 
expansion

>  <fragmenstein_error>  (1383) 


$$$$
C8798-P106
     RDKit          2D

  0  0  0  0  0  0  0  0  0  0999 V2000
M  END
>  <compound_id>  (1384) 
8798

>  <target_id>  (1384) 
1

>  <reference_id>  (1384) 
106

>  <inspiration_ids>  (1384) 
[3, 106]

>  <energy_score>  (1384) 
nan

>  <distance_score>  (1384) 
nan

>  <path>  (1384) 
/opt/xchem-fragalysis-2/maxwin/BulkDock/SCRATCH/511014/C8798-P106/C8798-P106.minimised.mol

>  <scratch_subdir>  (1384) 
/opt/xchem-fragalysis-2/maxwin/BulkDock/SCRATCH/511014/C8798-P106

>  <fragmenstein_runtime>  (1384) 
0.8605372905731201

>  <fragmenstein_outcome>  (1384) 
too distant

>  <fragmenstein_mode>  (1384) 
expansion

>  <fragmenstein_error>  (1384) 
DistanceError: hit1

$$$$
C7646-P106
     RDKit          2D

  0  0  0  0  0  0  0  0  0  0999 V2000
M  END
>  <compound_id>  (1385) 
7646

>  <target_id>  (1385) 
1

>  <reference_id>  (1385) 
106

>  <inspiration_ids>  (1385) 
[3, 106]

>  <energy_score>  (1385) 
nan

>  <distance_score>  (1385) 
nan

>  <path>  (1385) 
/opt/xchem-fragalysis-2/maxwin/BulkDock/SCRATCH/511014/C7646-P106/C7646-P106.minimised.mol

>  <scratch_subdir>  (1385) 
/opt/xchem-fragalysis-2/maxwin/BulkDock/SCRATCH/511014/C7646-P106

>  <fragmenstein_runtime>  (1385) 
0.3348503112792969

>  <fragmenstein_outcome>  (1385) 
too distant

>  <fragmenstein_mode>  (1385) 
expansion

>  <fragmenstein_error>  (1385) 
DistanceError: hit1

$$$$
C8799-P3
     RDKit          3D

 37 39  0  0  0  0  0  0  0  0999 V2000
   -6.6872  -21.6060   22.2600 C   0  0  0  0  0  0  0  0  0  0  0  0
   -7.1105  -20.1811   21.9751 C   0  0  0  0  0  0  0  0  0  0  0  0
   -6.2107  -19.3372   21.1455 C   0  0  0  0  0  0  0  0  0  0  0  0
   -5.2402  -19.8098   20.6110 O   0  0  0  0  0  0  0  0  0  0  0  0
   -6.7831  -17.9961   21.0629 N   0  0  0  0  0  0  0  0  0  0  0  0
   -6.4424  -16.9373   20.2842 C   0  0  0  0  0  0  0  0  0  0  0  0
   -6.3967  -16.4453   21.7405 C   0  0  0  0  0  0  0  0  0  0  0  0
   -5.4358  -14.4827   22.4396 C   0  0  0  0  0  0  0  0  0  0  0  0
   -3.4983  -13.6903   22.6137 O   0  0  0  0  0  0  0  0  0  0  0  0
   -2.3700  -12.3758   23.5577 C   0  0  0  0  0  0  0  0  0  0  0  0
   -2.7245  -12.3484   24.7469 O   0  0  0  0  0  0  0  0  0  0  0  0
   -0.6027  -11.0820   23.3476 C   0  0  0  0  0  0  0  0  0  0  0  0
    0.4357  -10.2779   24.1881 C   0  0  0  0  0  0  0  0  0  0  0  0
    0.3247   -8.7682   25.1143 C   0  0  0  0  0  0  0  0  0  0  0  0
    1.3633   -8.0096   25.0811 N   0  0  0  0  0  0  0  0  0  0  0  0
    1.8503   -6.8031   25.4346 C   0  0  0  0  0  0  0  0  0  0  0  0
    2.0421   -6.1798   24.2325 C   0  0  0  0  0  0  0  0  0  0  0  0
    1.5139   -6.9807   23.2462 N   0  0  0  0  0  0  0  0  0  0  0  0
    1.0772   -8.1568   23.7969 C   0  0  0  0  0  0  0  0  0  0  0  0
    0.1229   -9.5404   23.0500 N   0  0  0  0  0  0  0  0  0  0  0  0
   -6.1615  -16.6348   22.3934 C   0  0  0  0  0  0  0  0  0  0  0  0
   -5.6614  -21.6493   22.6398 H   0  0  0  0  0  0  0  0  0  0  0  0
   -7.3518  -22.0572   23.0016 H   0  0  0  0  0  0  0  0  0  0  0  0
   -6.7259  -22.2088   21.3471 H   0  0  0  0  0  0  0  0  0  0  0  0
   -7.0427  -19.6334   22.8818 H   0  0  0  0  0  0  0  0  0  0  0  0
   -8.1297  -20.1508   21.5784 H   0  0  0  0  0  0  0  0  0  0  0  0
   -5.7099  -17.0342   19.4820 H   0  0  0  0  0  0  0  0  0  0  0  0
   -7.3684  -16.7205   19.7173 H   0  0  0  0  0  0  0  0  0  0  0  0
   -7.7804  -16.9984   22.0217 H   0  0  0  0  0  0  0  0  0  0  0  0
   -7.7920  -15.9865   21.5415 H   0  0  0  0  0  0  0  0  0  0  0  0
   -5.2524  -14.0121   21.4808 H   0  0  0  0  0  0  0  0  0  0  0  0
    1.3357  -10.9258   24.0852 H   0  0  0  0  0  0  0  0  0  0  0  0
   -0.5508   -8.1483   25.4102 H   0  0  0  0  0  0  0  0  0  0  0  0
    2.0288   -6.5103   26.4588 H   0  0  0  0  0  0  0  0  0  0  0  0
    2.4532   -5.2006   24.0216 H   0  0  0  0  0  0  0  0  0  0  0  0
   -5.7106  -17.5081   23.1206 H   0  0  0  0  0  0  0  0  0  0  0  0
   -7.2993  -16.1101   23.0101 H   0  0  0  0  0  0  0  0  0  0  0  0
  1  2  1  0
  2  3  1  0
  3  4  2  0
  3  5  1  0
  5  6  1  0
  6  7  1  0
  7  8  1  0
  8  9  1  0
  9 10  1  0
 10 11  2  0
 10 12  1  0
 12 13  1  0
 13 14  2  0
 14 15  1  0
 15 16  1  0
 16 17  2  0
 17 18  1  0
 18 19  2  0
 19 20  1  0
  8 21  1  0
 21  5  1  0
 20 12  2  0
 19 15  1  0
  1 22  1  0
  1 23  1  0
  1 24  1  0
  2 25  1  0
  2 26  1  0
  6 27  1  0
  6 28  1  0
  7 29  1  0
  7 30  1  0
  8 31  1  0
 13 32  1  0
 14 33  1  0
 16 34  1  0
 17 35  1  0
 21 36  1  0
 21 37  1  0
M  END
>  <Energy>  (1386) 
2243.3642455291092

>  <compound_id>  (1386) 
8799

>  <target_id>  (1386) 
1

>  <reference_id>  (1386) 
3

>  <inspiration_ids>  (1386) 
[3, 106]

>  <energy_score>  (1386) 
2134.092050531365

>  <distance_score>  (1386) 
14.155508409257552

>  <path>  (1386) 
/opt/xchem-fragalysis-2/maxwin/BulkDock/SCRATCH/511014/C8799-P3/C8799-P3.minimised.mol

>  <scratch_subdir>  (1386) 
/opt/xchem-fragalysis-2/maxwin/BulkDock/SCRATCH/511014/C8799-P3

>  <fragmenstein_runtime>  (1386) 
13.418266534805298

>  <fragmenstein_outcome>  (1386) 
too moved

>  <fragmenstein_mode>  (1386) 
expansion

>  <fragmenstein_error>  (1386) 


$$$$
C8799-P106
     RDKit          3D

 37 39  0  0  0  0  0  0  0  0999 V2000
   -5.2528  -13.9677   29.4151 C   0  0  0  0  0  0  0  0  0  0  0  0
   -3.8644  -14.4059   29.8371 C   0  0  0  0  0  0  0  0  0  0  0  0
   -3.3814  -15.5703   28.9867 C   0  0  0  0  0  0  0  0  0  0  0  0
   -3.2871  -16.6619   29.4853 O   0  0  0  0  0  0  0  0  0  0  0  0
   -3.1967  -15.1478   27.6295 N   0  0  0  0  0  0  0  0  0  0  0  0
   -2.9432  -15.9218   26.4157 C   0  0  0  0  0  0  0  0  0  0  0  0
   -2.2021  -15.1383   25.1784 C   0  0  0  0  0  0  0  0  0  0  0  0
   -1.2916  -13.7310   25.7900 C   0  0  0  0  0  0  0  0  0  0  0  0
    0.6749  -13.4344   26.0765 O   0  0  0  0  0  0  0  0  0  0  0  0
    1.9203  -12.8234   25.5258 C   0  0  0  0  0  0  0  0  0  0  0  0
    2.1650  -12.8301   24.3073 O   0  0  0  0  0  0  0  0  0  0  0  0
    3.1568  -12.1971   26.3192 C   0  0  0  0  0  0  0  0  0  0  0  0
    4.4618  -12.9041   25.9300 C   0  0  0  0  0  0  0  0  0  0  0  0
    5.5243  -12.1323   25.6397 C   0  0  0  0  0  0  0  0  0  0  0  0
    5.4407  -10.7710   25.8476 N   0  0  0  0  0  0  0  0  0  0  0  0
    6.3189   -9.7710   25.5071 C   0  0  0  0  0  0  0  0  0  0  0  0
    5.7108   -8.6112   25.9157 C   0  0  0  0  0  0  0  0  0  0  0  0
    4.4998   -8.8835   26.5159 N   0  0  0  0  0  0  0  0  0  0  0  0
    4.3265  -10.1985   26.4669 C   0  0  0  0  0  0  0  0  0  0  0  0
    3.1609  -10.9387   26.7231 N   0  0  0  0  0  0  0  0  0  0  0  0
   -1.7943  -14.7477   27.4004 C   0  0  0  0  0  0  0  0  0  0  0  0
   -5.1845  -13.0968   28.7538 H   0  0  0  0  0  0  0  0  0  0  0  0
   -5.7788  -14.7495   28.8634 H   0  0  0  0  0  0  0  0  0  0  0  0
   -5.8380  -13.6565   30.2853 H   0  0  0  0  0  0  0  0  0  0  0  0
   -3.1561  -13.5736   29.7920 H   0  0  0  0  0  0  0  0  0  0  0  0
   -3.8882  -14.7468   30.8792 H   0  0  0  0  0  0  0  0  0  0  0  0
   -3.9611  -16.2026   26.1425 H   0  0  0  0  0  0  0  0  0  0  0  0
   -2.5628  -16.9285   26.6786 H   0  0  0  0  0  0  0  0  0  0  0  0
   -2.8219  -15.1633   24.2634 H   0  0  0  0  0  0  0  0  0  0  0  0
   -1.5319  -15.6640   24.5366 H   0  0  0  0  0  0  0  0  0  0  0  0
   -0.9099  -13.9812   24.7901 H   0  0  0  0  0  0  0  0  0  0  0  0
    4.4365  -13.9679   25.7393 H   0  0  0  0  0  0  0  0  0  0  0  0
    6.4459  -12.5245   25.2296 H   0  0  0  0  0  0  0  0  0  0  0  0
    7.2559   -9.9679   25.0076 H   0  0  0  0  0  0  0  0  0  0  0  0
    6.0721   -7.5952   25.8209 H   0  0  0  0  0  0  0  0  0  0  0  0
   -1.2480  -15.5907   27.8181 H   0  0  0  0  0  0  0  0  0  0  0  0
   -1.5116  -14.2153   28.3144 H   0  0  0  0  0  0  0  0  0  0  0  0
  1  2  1  0
  2  3  1  0
  3  4  2  0
  3  5  1  0
  5  6  1  0
  6  7  1  0
  7  8  1  0
  8  9  1  0
  9 10  1  0
 10 11  2  0
 10 12  1  0
 12 13  1  0
 13 14  2  0
 14 15  1  0
 15 16  1  0
 16 17  2  0
 17 18  1  0
 18 19  2  0
 19 20  1  0
  8 21  1  0
 21  5  1  0
 20 12  2  0
 19 15  1  0
  1 22  1  0
  1 23  1  0
  1 24  1  0
  2 25  1  0
  2 26  1  0
  6 27  1  0
  6 28  1  0
  7 29  1  0
  7 30  1  0
  8 31  1  0
 13 32  1  0
 14 33  1  0
 16 34  1  0
 17 35  1  0
 21 36  1  0
 21 37  1  0
M  END
>  <Energy>  (1387) 
430.76657249194142

>  <compound_id>  (1387) 
8799

>  <target_id>  (1387) 
1

>  <reference_id>  (1387) 
106

>  <inspiration_ids>  (1387) 
[3, 106]

>  <energy_score>  (1387) 
321.4943774941868

>  <distance_score>  (1387) 
14.205888058257962

>  <path>  (1387) 
/opt/xchem-fragalysis-2/maxwin/BulkDock/SCRATCH/511014/C8799-P106/C8799-P106.minimised.mol

>  <scratch_subdir>  (1387) 
/opt/xchem-fragalysis-2/maxwin/BulkDock/SCRATCH/511014/C8799-P106

>  <fragmenstein_runtime>  (1387) 
17.126079320907593

>  <fragmenstein_outcome>  (1387) 
too moved

>  <fragmenstein_mode>  (1387) 
expansion

>  <fragmenstein_error>  (1387) 


$$$$
C8800-P3
     RDKit          3D

 41 43  0  0  0  0  0  0  0  0999 V2000
   -2.8213  -19.9067   22.7845 O   0  0  0  0  0  0  0  0  0  0  0  0
   -2.3929  -19.9441   21.4109 C   0  0  0  0  0  0  0  0  0  0  0  0
   -1.0922  -19.1419   21.1843 C   0  0  0  0  0  0  0  0  0  0  0  0
   -0.5665  -18.7485   19.7417 C   0  0  0  0  0  0  0  0  0  0  0  0
   -0.9936  -17.4199   19.1982 N   0  0  0  0  0  0  0  0  0  0  0  0
   -2.3774  -17.5628   18.6705 C   0  0  0  0  0  0  0  0  0  0  0  0
   -2.2123  -18.0366   17.2476 C   0  0  0  0  0  0  0  0  0  0  0  0
   -0.8526  -17.4875   16.8212 C   0  0  0  0  0  0  0  0  0  0  0  0
   -0.2541  -16.7129   18.0178 C   0  0  0  0  0  0  0  0  0  0  0  0
    1.3974  -16.3174   17.6632 C   0  0  0  0  0  0  0  0  0  0  0  0
    1.7462  -14.8075   17.3680 N   0  0  0  0  0  0  0  0  0  0  0  0
    2.9253  -13.9864   17.3270 C   0  0  0  0  0  0  0  0  0  0  0  0
    4.2459  -14.3527   17.9834 C   0  0  0  0  0  0  0  0  0  0  0  0
    5.2509  -13.4549   17.9675 C   0  0  0  0  0  0  0  0  0  0  0  0
    5.0779  -12.2410   17.3255 N   0  0  0  0  0  0  0  0  0  0  0  0
    5.9482  -11.1879   17.1600 C   0  0  0  0  0  0  0  0  0  0  0  0
    5.2592  -10.2719   16.4035 C   0  0  0  0  0  0  0  0  0  0  0  0
    3.9961  -10.7333   16.1175 N   0  0  0  0  0  0  0  0  0  0  0  0
    3.8865  -11.9290   16.6828 C   0  0  0  0  0  0  0  0  0  0  0  0
    2.8222  -12.8158   16.6974 N   0  0  0  0  0  0  0  0  0  0  0  0
   -2.0601  -19.6119   23.3243 H   0  0  0  0  0  0  0  0  0  0  0  0
   -3.2205  -19.5766   20.8059 H   0  0  0  0  0  0  0  0  0  0  0  0
   -2.2293  -20.9924   21.1418 H   0  0  0  0  0  0  0  0  0  0  0  0
   -0.2898  -19.7270   21.6563 H   0  0  0  0  0  0  0  0  0  0  0  0
   -1.1249  -18.2322   21.7663 H   0  0  0  0  0  0  0  0  0  0  0  0
    0.5257  -18.6919   19.8281 H   0  0  0  0  0  0  0  0  0  0  0  0
   -0.7686  -19.5674   19.0418 H   0  0  0  0  0  0  0  0  0  0  0  0
   -2.8709  -16.5871   18.6412 H   0  0  0  0  0  0  0  0  0  0  0  0
   -3.0252  -18.2221   19.2457 H   0  0  0  0  0  0  0  0  0  0  0  0
   -3.0154  -17.6658   16.6025 H   0  0  0  0  0  0  0  0  0  0  0  0
   -2.2122  -19.1306   17.1852 H   0  0  0  0  0  0  0  0  0  0  0  0
   -0.9534  -16.8335   15.9481 H   0  0  0  0  0  0  0  0  0  0  0  0
   -0.2003  -18.3227   16.5392 H   0  0  0  0  0  0  0  0  0  0  0  0
   -0.7099  -15.7109   18.0220 H   0  0  0  0  0  0  0  0  0  0  0  0
    2.0397  -16.7543   18.4292 H   0  0  0  0  0  0  0  0  0  0  0  0
    1.6496  -16.8462   16.7364 H   0  0  0  0  0  0  0  0  0  0  0  0
    1.0334  -14.3922   16.7721 H   0  0  0  0  0  0  0  0  0  0  0  0
    4.3340  -15.3219   18.4525 H   0  0  0  0  0  0  0  0  0  0  0  0
    6.2120  -13.6432   18.4271 H   0  0  0  0  0  0  0  0  0  0  0  0
    6.9467  -11.1969   17.5696 H   0  0  0  0  0  0  0  0  0  0  0  0
    5.5961   -9.3097   16.0414 H   0  0  0  0  0  0  0  0  0  0  0  0
  1  2  1  0
  2  3  1  0
  3  4  1  0
  4  5  1  0
  5  6  1  0
  6  7  1  0
  7  8  1  0
  8  9  1  0
  9 10  1  0
 10 11  1  0
 11 12  1  0
 12 13  1  0
 13 14  2  0
 14 15  1  0
 15 16  1  0
 16 17  2  0
 17 18  1  0
 18 19  2  0
 19 20  1  0
  9  5  1  0
 20 12  2  0
 19 15  1  0
  1 21  1  0
  2 22  1  0
  2 23  1  0
  3 24  1  0
  3 25  1  0
  4 26  1  0
  4 27  1  0
  6 28  1  0
  6 29  1  0
  7 30  1  0
  7 31  1  0
  8 32  1  0
  8 33  1  0
  9 34  1  0
 10 35  1  0
 10 36  1  0
 11 37  1  0
 13 38  1  0
 14 39  1  0
 16 40  1  0
 17 41  1  0
M  END
>  <Energy>  (1388) 
78.064805081721559

>  <compound_id>  (1388) 
8800

>  <target_id>  (1388) 
1

>  <reference_id>  (1388) 
3

>  <inspiration_ids>  (1388) 
[3, 106]

>  <energy_score>  (1388) 
-6.190532761683272

>  <distance_score>  (1388) 
14.687503276533805

>  <path>  (1388) 
/opt/xchem-fragalysis-2/maxwin/BulkDock/SCRATCH/511014/C8800-P3/C8800-P3.minimised.mol

>  <scratch_subdir>  (1388) 
/opt/xchem-fragalysis-2/maxwin/BulkDock/SCRATCH/511014/C8800-P3

>  <fragmenstein_runtime>  (1388) 
16.262904405593872

>  <fragmenstein_outcome>  (1388) 
too moved

>  <fragmenstein_mode>  (1388) 
expansion

>  <fragmenstein_error>  (1388) 


$$$$
C8800-P106
     RDKit          3D

 41 43  0  0  0  0  0  0  0  0999 V2000
   -8.7979  -14.1977   26.7211 O   0  0  0  0  0  0  0  0  0  0  0  0
   -8.1362  -13.9244   25.4878 C   0  0  0  0  0  0  0  0  0  0  0  0
   -7.2638  -12.6537   25.6010 C   0  0  0  0  0  0  0  0  0  0  0  0
   -6.3039  -12.3857   24.3600 C   0  0  0  0  0  0  0  0  0  0  0  0
   -4.7845  -11.8950   24.5636 N   0  0  0  0  0  0  0  0  0  0  0  0
   -3.6695  -12.2237   26.2213 C   0  0  0  0  0  0  0  0  0  0  0  0
   -2.4851  -11.6624   25.8444 C   0  0  0  0  0  0  0  0  0  0  0  0
   -3.2093  -11.9084   24.6610 C   0  0  0  0  0  0  0  0  0  0  0  0
   -3.7174  -10.6839   23.6921 C   0  0  0  0  0  0  0  0  0  0  0  0
   -3.1086  -10.0376   21.9719 C   0  0  0  0  0  0  0  0  0  0  0  0
   -2.3559   -8.6406   22.0647 N   0  0  0  0  0  0  0  0  0  0  0  0
   -1.1811   -8.0286   21.5076 C   0  0  0  0  0  0  0  0  0  0  0  0
    0.0823   -8.8037   21.3085 C   0  0  0  0  0  0  0  0  0  0  0  0
    1.2025   -8.1862   20.8921 C   0  0  0  0  0  0  0  0  0  0  0  0
    1.1700   -6.8487   20.6074 N   0  0  0  0  0  0  0  0  0  0  0  0
    2.1603   -6.0205   20.1357 C   0  0  0  0  0  0  0  0  0  0  0  0
    1.5582   -4.7952   20.0130 C   0  0  0  0  0  0  0  0  0  0  0  0
    0.2409   -4.8573   20.4141 N   0  0  0  0  0  0  0  0  0  0  0  0
    0.0034   -6.1152   20.7738 C   0  0  0  0  0  0  0  0  0  0  0  0
   -1.1579   -6.7160   21.2592 N   0  0  0  0  0  0  0  0  0  0  0  0
   -9.2727  -13.3893   26.9782 H   0  0  0  0  0  0  0  0  0  0  0  0
   -7.5499  -14.8099   25.2377 H   0  0  0  0  0  0  0  0  0  0  0  0
   -8.8944  -13.7952   24.7087 H   0  0  0  0  0  0  0  0  0  0  0  0
   -6.7379  -12.6665   26.5588 H   0  0  0  0  0  0  0  0  0  0  0  0
   -7.9274  -11.7834   25.6977 H   0  0  0  0  0  0  0  0  0  0  0  0
   -6.2610  -13.2656   23.7121 H   0  0  0  0  0  0  0  0  0  0  0  0
   -6.8910  -11.7383   23.6981 H   0  0  0  0  0  0  0  0  0  0  0  0
   -4.1777  -12.0210   27.1770 H   0  0  0  0  0  0  0  0  0  0  0  0
   -3.2206  -13.2084   26.3899 H   0  0  0  0  0  0  0  0  0  0  0  0
   -1.5500  -12.1504   25.8033 H   0  0  0  0  0  0  0  0  0  0  0  0
   -2.3929  -10.7815   26.4176 H   0  0  0  0  0  0  0  0  0  0  0  0
   -2.4645  -12.6456   24.7994 H   0  0  0  0  0  0  0  0  0  0  0  0
   -3.5100  -12.8262   24.2360 H   0  0  0  0  0  0  0  0  0  0  0  0
   -3.2532   -9.7434   24.0427 H   0  0  0  0  0  0  0  0  0  0  0  0
   -2.4349  -10.7206   21.4270 H   0  0  0  0  0  0  0  0  0  0  0  0
   -3.9598  -10.0205   21.3533 H   0  0  0  0  0  0  0  0  0  0  0  0
   -2.9780   -7.9412   22.4810 H   0  0  0  0  0  0  0  0  0  0  0  0
    0.0493   -9.8558   21.5400 H   0  0  0  0  0  0  0  0  0  0  0  0
    2.1361   -8.7066   20.7524 H   0  0  0  0  0  0  0  0  0  0  0  0
    3.1573   -6.3772   19.9293 H   0  0  0  0  0  0  0  0  0  0  0  0
    1.9906   -3.8677   19.6631 H   0  0  0  0  0  0  0  0  0  0  0  0
  1  2  1  0
  2  3  1  0
  3  4  1  0
  4  5  1  0
  5  6  1  0
  6  7  1  0
  7  8  1  0
  8  9  1  0
  9 10  1  0
 10 11  1  0
 11 12  1  0
 12 13  1  0
 13 14  2  0
 14 15  1  0
 15 16  1  0
 16 17  2  0
 17 18  1  0
 18 19  2  0
 19 20  1  0
  9  5  1  0
 20 12  2  0
 19 15  1  0
  1 21  1  0
  2 22  1  0
  2 23  1  0
  3 24  1  0
  3 25  1  0
  4 26  1  0
  4 27  1  0
  6 28  1  0
  6 29  1  0
  7 30  1  0
  7 31  1  0
  8 32  1  0
  8 33  1  0
  9 34  1  0
 10 35  1  0
 10 36  1  0
 11 37  1  0
 13 38  1  0
 14 39  1  0
 16 40  1  0
 17 41  1  0
M  END
>  <Energy>  (1389) 
567.62097028990297

>  <compound_id>  (1389) 
8800

>  <target_id>  (1389) 
1

>  <reference_id>  (1389) 
106

>  <inspiration_ids>  (1389) 
[3, 106]

>  <energy_score>  (1389) 
483.36563244649165

>  <distance_score>  (1389) 
13.800704261501187

>  <path>  (1389) 
/opt/xchem-fragalysis-2/maxwin/BulkDock/SCRATCH/511014/C8800-P106/C8800-P106.minimised.mol

>  <scratch_subdir>  (1389) 
/opt/xchem-fragalysis-2/maxwin/BulkDock/SCRATCH/511014/C8800-P106

>  <fragmenstein_runtime>  (1389) 
19.89960217475891

>  <fragmenstein_outcome>  (1389) 
too moved

>  <fragmenstein_mode>  (1389) 
expansion

>  <fragmenstein_error>  (1389) 


$$$$
C8801-P106
     RDKit          2D

  0  0  0  0  0  0  0  0  0  0999 V2000
M  END
>  <compound_id>  (1390) 
8801

>  <target_id>  (1390) 
1

>  <reference_id>  (1390) 
106

>  <inspiration_ids>  (1390) 
[3, 106]

>  <energy_score>  (1390) 
nan

>  <distance_score>  (1390) 
nan

>  <path>  (1390) 
/opt/xchem-fragalysis-2/maxwin/BulkDock/SCRATCH/511014/C8801-P106/C8801-P106.minimised.mol

>  <scratch_subdir>  (1390) 
/opt/xchem-fragalysis-2/maxwin/BulkDock/SCRATCH/511014/C8801-P106

>  <fragmenstein_runtime>  (1390) 
1.7986702919006348

>  <fragmenstein_outcome>  (1390) 
too distant

>  <fragmenstein_mode>  (1390) 
expansion

>  <fragmenstein_error>  (1390) 
DistanceError: hit1

$$$$
C8802-P106
     RDKit          2D

  0  0  0  0  0  0  0  0  0  0999 V2000
M  END
>  <compound_id>  (1391) 
8802

>  <target_id>  (1391) 
1

>  <reference_id>  (1391) 
106

>  <inspiration_ids>  (1391) 
[3, 106]

>  <energy_score>  (1391) 
nan

>  <distance_score>  (1391) 
nan

>  <path>  (1391) 
/opt/xchem-fragalysis-2/maxwin/BulkDock/SCRATCH/511014/C8802-P106/C8802-P106.minimised.mol

>  <scratch_subdir>  (1391) 
/opt/xchem-fragalysis-2/maxwin/BulkDock/SCRATCH/511014/C8802-P106

>  <fragmenstein_runtime>  (1391) 
0.8268716335296631

>  <fragmenstein_outcome>  (1391) 
too distant

>  <fragmenstein_mode>  (1391) 
expansion

>  <fragmenstein_error>  (1391) 
DistanceError: hit1

$$$$
C8803-P106
     RDKit          2D

  0  0  0  0  0  0  0  0  0  0999 V2000
M  END
>  <compound_id>  (1392) 
8803

>  <target_id>  (1392) 
1

>  <reference_id>  (1392) 
106

>  <inspiration_ids>  (1392) 
[3, 106]

>  <energy_score>  (1392) 
nan

>  <distance_score>  (1392) 
nan

>  <path>  (1392) 
/opt/xchem-fragalysis-2/maxwin/BulkDock/SCRATCH/511014/C8803-P106/C8803-P106.minimised.mol

>  <scratch_subdir>  (1392) 
/opt/xchem-fragalysis-2/maxwin/BulkDock/SCRATCH/511014/C8803-P106

>  <fragmenstein_runtime>  (1392) 
1.3340044021606445

>  <fragmenstein_outcome>  (1392) 
too distant

>  <fragmenstein_mode>  (1392) 
expansion

>  <fragmenstein_error>  (1392) 
DistanceError: hit1

$$$$
C8804-P106
     RDKit          2D

  0  0  0  0  0  0  0  0  0  0999 V2000
M  END
>  <compound_id>  (1393) 
8804

>  <target_id>  (1393) 
1

>  <reference_id>  (1393) 
106

>  <inspiration_ids>  (1393) 
[3, 106]

>  <energy_score>  (1393) 
nan

>  <distance_score>  (1393) 
nan

>  <path>  (1393) 
/opt/xchem-fragalysis-2/maxwin/BulkDock/SCRATCH/511014/C8804-P106/C8804-P106.minimised.mol

>  <scratch_subdir>  (1393) 
/opt/xchem-fragalysis-2/maxwin/BulkDock/SCRATCH/511014/C8804-P106

>  <fragmenstein_runtime>  (1393) 
0.752373218536377

>  <fragmenstein_outcome>  (1393) 
too distant

>  <fragmenstein_mode>  (1393) 
expansion

>  <fragmenstein_error>  (1393) 
DistanceError: hit1

$$$$
C8805-P3
     RDKit          3D

 45 47  0  0  0  0  0  0  0  0999 V2000
   -2.8889  -12.1472   23.8701 C   0  0  0  0  0  0  0  0  0  0  0  0
   -4.0344  -10.7503   23.8710 C   0  0  0  0  0  0  0  0  0  0  0  0
   -4.7033   -9.5893   24.9404 N   0  0  0  0  0  0  0  0  0  0  0  0
   -3.8764   -9.5409   26.2921 C   0  0  0  0  0  0  0  0  0  0  0  0
   -4.0872  -10.1626   27.2681 O   0  0  0  0  0  0  0  0  0  0  0  0
   -2.4475   -8.1530   26.3863 C   0  0  0  0  0  0  0  0  0  0  0  0
   -1.5436   -7.4659   25.1720 C   0  0  0  0  0  0  0  0  0  0  0  0
   -1.3272   -6.1525   25.0585 C   0  0  0  0  0  0  0  0  0  0  0  0
   -1.5780   -5.3531   26.1322 N   0  0  0  0  0  0  0  0  0  0  0  0
   -1.5513   -3.9851   26.2427 C   0  0  0  0  0  0  0  0  0  0  0  0
   -1.7194   -3.7597   27.5803 C   0  0  0  0  0  0  0  0  0  0  0  0
   -2.0152   -4.9351   28.2343 N   0  0  0  0  0  0  0  0  0  0  0  0
   -1.9636   -5.9123   27.3452 C   0  0  0  0  0  0  0  0  0  0  0  0
   -2.5198   -7.2383   27.4078 N   0  0  0  0  0  0  0  0  0  0  0  0
   -6.3717  -10.4884   24.4915 C   0  0  0  0  0  0  0  0  0  0  0  0
   -7.4836  -10.3555   23.1155 C   0  0  0  0  0  0  0  0  0  0  0  0
   -8.7141  -11.1363   23.4978 C   0  0  0  0  0  0  0  0  0  0  0  0
   -8.3801  -12.4349   24.0873 N   0  0  0  0  0  0  0  0  0  0  0  0
   -9.5399  -13.2659   24.1357 C   0  0  0  0  0  0  0  0  0  0  0  0
  -10.3640  -13.4045   24.9962 O   0  0  0  0  0  0  0  0  0  0  0  0
   -9.6190  -13.9252   22.7617 C   0  0  0  0  0  0  0  0  0  0  0  0
  -11.2136  -14.6506   22.3875 S   0  0  0  0  0  0  0  0  0  0  0  0
  -10.8513  -15.0466   20.6830 C   0  0  0  0  0  0  0  0  0  0  0  0
   -7.7389  -11.5249   25.1702 C   0  0  0  0  0  0  0  0  0  0  0  0
   -2.5163  -12.3776   24.8860 H   0  0  0  0  0  0  0  0  0  0  0  0
   -2.1397  -11.9023   23.1089 H   0  0  0  0  0  0  0  0  0  0  0  0
   -3.0842  -13.1144   23.3605 H   0  0  0  0  0  0  0  0  0  0  0  0
   -4.4431  -10.6403   22.8527 H   0  0  0  0  0  0  0  0  0  0  0  0
   -3.3064  -10.0661   23.4323 H   0  0  0  0  0  0  0  0  0  0  0  0
   -1.5016   -7.8618   24.2005 H   0  0  0  0  0  0  0  0  0  0  0  0
   -0.9852   -5.6840   24.1416 H   0  0  0  0  0  0  0  0  0  0  0  0
   -1.3659   -3.3307   25.4035 H   0  0  0  0  0  0  0  0  0  0  0  0
   -1.7068   -2.8158   28.1112 H   0  0  0  0  0  0  0  0  0  0  0  0
   -6.6169   -9.8668   25.3417 H   0  0  0  0  0  0  0  0  0  0  0  0
   -7.8058   -9.3442   22.8675 H   0  0  0  0  0  0  0  0  0  0  0  0
   -7.0640  -10.8026   22.1995 H   0  0  0  0  0  0  0  0  0  0  0  0
   -9.2098  -11.3238   22.5360 H   0  0  0  0  0  0  0  0  0  0  0  0
   -9.5507  -10.6340   24.0123 H   0  0  0  0  0  0  0  0  0  0  0  0
   -9.4515  -13.1811   21.9807 H   0  0  0  0  0  0  0  0  0  0  0  0
   -8.8067  -14.6326   22.6537 H   0  0  0  0  0  0  0  0  0  0  0  0
  -10.0415  -15.7762   20.6088 H   0  0  0  0  0  0  0  0  0  0  0  0
  -10.5561  -14.1445   20.1381 H   0  0  0  0  0  0  0  0  0  0  0  0
  -11.7479  -15.4285   20.1890 H   0  0  0  0  0  0  0  0  0  0  0  0
   -8.5632  -11.0536   25.7303 H   0  0  0  0  0  0  0  0  0  0  0  0
   -7.4414  -12.1204   26.0417 H   0  0  0  0  0  0  0  0  0  0  0  0
  1  2  1  0
  2  3  1  0
  3  4  1  0
  4  5  2  0
  4  6  1  0
  6  7  1  0
  7  8  2  0
  8  9  1  0
  9 10  1  0
 10 11  2  0
 11 12  1  0
 12 13  2  0
 13 14  1  0
  3 15  1  0
 15 16  1  0
 16 17  1  0
 17 18  1  0
 18 19  1  0
 19 20  2  0
 19 21  1  0
 21 22  1  0
 22 23  1  0
 18 24  1  0
 14  6  2  0
 24 15  1  0
 13  9  1  0
  1 25  1  0
  1 26  1  0
  1 27  1  0
  2 28  1  0
  2 29  1  0
  7 30  1  0
  8 31  1  0
 10 32  1  0
 11 33  1  0
 15 34  1  0
 16 35  1  0
 16 36  1  0
 17 37  1  0
 17 38  1  0
 21 39  1  0
 21 40  1  0
 23 41  1  0
 23 42  1  0
 23 43  1  0
 24 44  1  0
 24 45  1  0
M  END
>  <Energy>  (1394) 
572.9474658611083

>  <compound_id>  (1394) 
8805

>  <target_id>  (1394) 
1

>  <reference_id>  (1394) 
3

>  <inspiration_ids>  (1394) 
[3, 106]

>  <energy_score>  (1394) 
430.1900707331025

>  <distance_score>  (1394) 
16.123173626575735

>  <path>  (1394) 
/opt/xchem-fragalysis-2/maxwin/BulkDock/SCRATCH/511014/C8805-P3/C8805-P3.minimised.mol

>  <scratch_subdir>  (1394) 
/opt/xchem-fragalysis-2/maxwin/BulkDock/SCRATCH/511014/C8805-P3

>  <fragmenstein_runtime>  (1394) 
25.8149631023407

>  <fragmenstein_outcome>  (1394) 
too moved

>  <fragmenstein_mode>  (1394) 
expansion

>  <fragmenstein_error>  (1394) 


$$$$
C8805-P106
     RDKit          3D

 45 47  0  0  0  0  0  0  0  0999 V2000
    2.7046   -8.5403   21.7593 C   0  0  0  0  0  0  0  0  0  0  0  0
    3.6316   -9.6809   22.5732 C   0  0  0  0  0  0  0  0  0  0  0  0
    4.4934  -10.8867   22.2863 N   0  0  0  0  0  0  0  0  0  0  0  0
    5.9779  -10.6386   22.8975 C   0  0  0  0  0  0  0  0  0  0  0  0
    6.4352  -10.9235   23.9872 O   0  0  0  0  0  0  0  0  0  0  0  0
    7.0271   -9.7623   21.9813 C   0  0  0  0  0  0  0  0  0  0  0  0
    6.5372   -8.8601   20.8677 C   0  0  0  0  0  0  0  0  0  0  0  0
    7.1859   -7.6997   20.6829 C   0  0  0  0  0  0  0  0  0  0  0  0
    8.3901   -7.4991   21.3218 N   0  0  0  0  0  0  0  0  0  0  0  0
    9.2251   -6.4164   21.3219 C   0  0  0  0  0  0  0  0  0  0  0  0
   10.3541   -6.8448   21.9744 C   0  0  0  0  0  0  0  0  0  0  0  0
   10.1955   -8.1335   22.4205 N   0  0  0  0  0  0  0  0  0  0  0  0
    8.9727   -8.5030   22.0849 C   0  0  0  0  0  0  0  0  0  0  0  0
    8.2460   -9.6111   22.4651 N   0  0  0  0  0  0  0  0  0  0  0  0
    2.9425  -11.8836   23.0356 C   0  0  0  0  0  0  0  0  0  0  0  0
    2.7026  -13.2730   23.9646 C   0  0  0  0  0  0  0  0  0  0  0  0
    0.9053  -14.0046   23.9856 C   0  0  0  0  0  0  0  0  0  0  0  0
    0.2774  -13.7997   22.7491 N   0  0  0  0  0  0  0  0  0  0  0  0
    0.8119  -15.1761   21.5211 C   0  0  0  0  0  0  0  0  0  0  0  0
    1.8240  -15.1051   20.7395 O   0  0  0  0  0  0  0  0  0  0  0  0
   -0.1254  -16.6520   21.1375 C   0  0  0  0  0  0  0  0  0  0  0  0
    0.4455  -17.7817   19.7235 S   0  0  0  0  0  0  0  0  0  0  0  0
   -0.7552  -19.1509   20.0399 C   0  0  0  0  0  0  0  0  0  0  0  0
    1.0612  -11.8583   22.9977 C   0  0  0  0  0  0  0  0  0  0  0  0
    2.3997   -7.7713   22.4820 H   0  0  0  0  0  0  0  0  0  0  0  0
    1.7933   -8.9358   21.2990 H   0  0  0  0  0  0  0  0  0  0  0  0
    3.2467   -8.0056   20.9629 H   0  0  0  0  0  0  0  0  0  0  0  0
    4.3493   -8.9872   22.0562 H   0  0  0  0  0  0  0  0  0  0  0  0
    4.4341   -9.2538   23.1669 H   0  0  0  0  0  0  0  0  0  0  0  0
    5.6695   -9.0819   20.2847 H   0  0  0  0  0  0  0  0  0  0  0  0
    6.8381   -6.9356   20.0009 H   0  0  0  0  0  0  0  0  0  0  0  0
    8.9833   -5.4724   20.8612 H   0  0  0  0  0  0  0  0  0  0  0  0
   11.2696   -6.2941   22.1532 H   0  0  0  0  0  0  0  0  0  0  0  0
    3.3198  -12.6622   22.3664 H   0  0  0  0  0  0  0  0  0  0  0  0
    3.3899  -13.5669   24.7472 H   0  0  0  0  0  0  0  0  0  0  0  0
    3.1059  -14.0897   23.3539 H   0  0  0  0  0  0  0  0  0  0  0  0
    1.4360  -14.8055   23.4942 H   0  0  0  0  0  0  0  0  0  0  0  0
    0.1970  -14.2352   24.6765 H   0  0  0  0  0  0  0  0  0  0  0  0
   -0.9331  -16.2813   20.4846 H   0  0  0  0  0  0  0  0  0  0  0  0
   -0.5325  -17.4515   21.6724 H   0  0  0  0  0  0  0  0  0  0  0  0
   -0.6419  -19.8974   19.2496 H   0  0  0  0  0  0  0  0  0  0  0  0
   -0.5467  -19.6272   21.0012 H   0  0  0  0  0  0  0  0  0  0  0  0
   -1.7780  -18.7667   20.0160 H   0  0  0  0  0  0  0  0  0  0  0  0
    0.5346  -11.1300   22.3602 H   0  0  0  0  0  0  0  0  0  0  0  0
    1.3707  -11.6686   24.0210 H   0  0  0  0  0  0  0  0  0  0  0  0
  1  2  1  0
  2  3  1  0
  3  4  1  0
  4  5  2  0
  4  6  1  0
  6  7  1  0
  7  8  2  0
  8  9  1  0
  9 10  1  0
 10 11  2  0
 11 12  1  0
 12 13  2  0
 13 14  1  0
  3 15  1  0
 15 16  1  0
 16 17  1  0
 17 18  1  0
 18 19  1  0
 19 20  2  0
 19 21  1  0
 21 22  1  0
 22 23  1  0
 18 24  1  0
 14  6  2  0
 24 15  1  0
 13  9  1  0
  1 25  1  0
  1 26  1  0
  1 27  1  0
  2 28  1  0
  2 29  1  0
  7 30  1  0
  8 31  1  0
 10 32  1  0
 11 33  1  0
 15 34  1  0
 16 35  1  0
 16 36  1  0
 17 37  1  0
 17 38  1  0
 21 39  1  0
 21 40  1  0
 23 41  1  0
 23 42  1  0
 23 43  1  0
 24 44  1  0
 24 45  1  0
M  END
>  <Energy>  (1395) 
870.87620946779168

>  <compound_id>  (1395) 
8805

>  <target_id>  (1395) 
1

>  <reference_id>  (1395) 
106

>  <inspiration_ids>  (1395) 
[3, 106]

>  <energy_score>  (1395) 
728.1188143397819

>  <distance_score>  (1395) 
14.212327841226237

>  <path>  (1395) 
/opt/xchem-fragalysis-2/maxwin/BulkDock/SCRATCH/511014/C8805-P106/C8805-P106.minimised.mol

>  <scratch_subdir>  (1395) 
/opt/xchem-fragalysis-2/maxwin/BulkDock/SCRATCH/511014/C8805-P106

>  <fragmenstein_runtime>  (1395) 
28.81960916519165

>  <fragmenstein_outcome>  (1395) 
too moved

>  <fragmenstein_mode>  (1395) 
expansion

>  <fragmenstein_error>  (1395) 


$$$$
C8806-P3
     RDKit          3D

 41 43  0  0  0  0  0  0  0  0999 V2000
    5.3580   -6.6762   23.0136 C   0  0  0  0  0  0  0  0  0  0  0  0
    6.2052   -7.9602   22.9247 C   0  0  0  0  0  0  0  0  0  0  0  0
    7.5105   -7.5493   22.3380 N   0  0  0  0  0  0  0  0  0  0  0  0
    8.4707   -6.5678   22.7781 C   0  0  0  0  0  0  0  0  0  0  0  0
    8.5020   -5.8988   23.7791 O   0  0  0  0  0  0  0  0  0  0  0  0
    9.6078   -6.2184   21.7635 C   0  0  0  0  0  0  0  0  0  0  0  0
   10.8072   -5.5266   22.3842 C   0  0  0  0  0  0  0  0  0  0  0  0
   11.7153   -5.0215   21.5390 C   0  0  0  0  0  0  0  0  0  0  0  0
   11.5369   -5.2043   20.1831 N   0  0  0  0  0  0  0  0  0  0  0  0
   12.3133   -4.7883   19.1371 C   0  0  0  0  0  0  0  0  0  0  0  0
   11.6921   -5.2777   18.0173 C   0  0  0  0  0  0  0  0  0  0  0  0
   10.5547   -5.9741   18.3502 N   0  0  0  0  0  0  0  0  0  0  0  0
   10.4526   -5.9110   19.6644 C   0  0  0  0  0  0  0  0  0  0  0  0
    9.4526   -6.4007   20.4750 N   0  0  0  0  0  0  0  0  0  0  0  0
    7.9302   -8.9742   22.8361 C   0  0  0  0  0  0  0  0  0  0  0  0
    8.3897   -9.1668   24.2540 C   0  0  0  0  0  0  0  0  0  0  0  0
    8.4629  -10.6679   24.2171 C   0  0  0  0  0  0  0  0  0  0  0  0
    7.1856  -11.3443   23.8787 N   0  0  0  0  0  0  0  0  0  0  0  0
    5.8712  -11.2270   24.4676 C   0  0  0  0  0  0  0  0  0  0  0  0
    5.4605  -10.4824   25.3246 O   0  0  0  0  0  0  0  0  0  0  0  0
    4.9339  -12.3483   23.9141 C   0  0  0  0  0  0  0  0  0  0  0  0
    5.6187  -13.4038   23.3804 F   0  0  0  0  0  0  0  0  0  0  0  0
    4.1112  -12.8943   24.8811 F   0  0  0  0  0  0  0  0  0  0  0  0
    7.3010  -10.4167   22.6046 C   0  0  0  0  0  0  0  0  0  0  0  0
    5.8593   -5.8974   23.5968 H   0  0  0  0  0  0  0  0  0  0  0  0
    5.1489   -6.2722   22.0176 H   0  0  0  0  0  0  0  0  0  0  0  0
    4.4161   -6.8936   23.5165 H   0  0  0  0  0  0  0  0  0  0  0  0
    6.1785   -8.3051   23.9600 H   0  0  0  0  0  0  0  0  0  0  0  0
    5.6490   -8.5909   22.2259 H   0  0  0  0  0  0  0  0  0  0  0  0
   10.8651   -5.4154   23.4594 H   0  0  0  0  0  0  0  0  0  0  0  0
   12.5905   -4.4741   21.8650 H   0  0  0  0  0  0  0  0  0  0  0  0
   13.2094   -4.2004   19.2734 H   0  0  0  0  0  0  0  0  0  0  0  0
   12.0002   -5.1545   16.9882 H   0  0  0  0  0  0  0  0  0  0  0  0
    8.8581   -9.0542   22.2402 H   0  0  0  0  0  0  0  0  0  0  0  0
    7.7132   -8.8148   25.0362 H   0  0  0  0  0  0  0  0  0  0  0  0
    9.3715   -8.7198   24.4417 H   0  0  0  0  0  0  0  0  0  0  0  0
    9.2903  -11.0684   23.6077 H   0  0  0  0  0  0  0  0  0  0  0  0
    8.6869  -11.0049   25.2384 H   0  0  0  0  0  0  0  0  0  0  0  0
    4.3084  -11.9327   23.1240 H   0  0  0  0  0  0  0  0  0  0  0  0
    7.9186  -10.9739   21.8797 H   0  0  0  0  0  0  0  0  0  0  0  0
    6.3104  -10.3978   22.1406 H   0  0  0  0  0  0  0  0  0  0  0  0
  1  2  1  0
  2  3  1  0
  3  4  1  0
  4  5  2  0
  4  6  1  0
  6  7  1  0
  7  8  2  0
  8  9  1  0
  9 10  1  0
 10 11  2  0
 11 12  1  0
 12 13  2  0
 13 14  1  0
  3 15  1  0
 15 16  1  0
 16 17  1  0
 17 18  1  0
 18 19  1  0
 19 20  2  0
 19 21  1  0
 21 22  1  0
 21 23  1  0
 18 24  1  0
 14  6  2  0
 24 15  1  0
 13  9  1  0
  1 25  1  0
  1 26  1  0
  1 27  1  0
  2 28  1  0
  2 29  1  0
  7 30  1  0
  8 31  1  0
 10 32  1  0
 11 33  1  0
 15 34  1  0
 16 35  1  0
 16 36  1  0
 17 37  1  0
 17 38  1  0
 21 39  1  0
 24 40  1  0
 24 41  1  0
M  END
>  <Energy>  (1396) 
280.88267736969397

>  <compound_id>  (1396) 
8806

>  <target_id>  (1396) 
1

>  <reference_id>  (1396) 
3

>  <inspiration_ids>  (1396) 
[3, 106]

>  <energy_score>  (1396) 
124.11670845788126

>  <distance_score>  (1396) 
15.858168212032533

>  <path>  (1396) 
/opt/xchem-fragalysis-2/maxwin/BulkDock/SCRATCH/511014/C8806-P3/C8806-P3.minimised.mol

>  <scratch_subdir>  (1396) 
/opt/xchem-fragalysis-2/maxwin/BulkDock/SCRATCH/511014/C8806-P3

>  <fragmenstein_runtime>  (1396) 
22.175665616989136

>  <fragmenstein_outcome>  (1396) 
too moved

>  <fragmenstein_mode>  (1396) 
expansion

>  <fragmenstein_error>  (1396) 


$$$$
C8806-P106
     RDKit          3D

 41 43  0  0  0  0  0  0  0  0999 V2000
    0.5533  -11.1803   22.5233 C   0  0  0  0  0  0  0  0  0  0  0  0
    1.7717  -12.1185   23.7993 C   0  0  0  0  0  0  0  0  0  0  0  0
    2.7547  -13.1860   23.9784 N   0  0  0  0  0  0  0  0  0  0  0  0
    3.6437  -13.8810   22.9604 C   0  0  0  0  0  0  0  0  0  0  0  0
    3.6779  -13.7923   21.7510 O   0  0  0  0  0  0  0  0  0  0  0  0
    4.8023  -14.7601   23.4547 C   0  0  0  0  0  0  0  0  0  0  0  0
    5.4002  -14.0625   24.6953 C   0  0  0  0  0  0  0  0  0  0  0  0
    6.3583  -13.1484   24.4101 C   0  0  0  0  0  0  0  0  0  0  0  0
    6.8578  -13.0665   23.1102 N   0  0  0  0  0  0  0  0  0  0  0  0
    7.6894  -12.1434   22.5214 C   0  0  0  0  0  0  0  0  0  0  0  0
    7.8161  -12.5586   21.2173 C   0  0  0  0  0  0  0  0  0  0  0  0
    7.1221  -13.7296   21.0086 N   0  0  0  0  0  0  0  0  0  0  0  0
    6.5329  -14.0367   22.1555 C   0  0  0  0  0  0  0  0  0  0  0  0
    5.6927  -15.1053   22.5191 N   0  0  0  0  0  0  0  0  0  0  0  0
    1.1395  -14.2647   24.3324 C   0  0  0  0  0  0  0  0  0  0  0  0
   -0.2493  -13.8964   23.5579 C   0  0  0  0  0  0  0  0  0  0  0  0
   -1.5263  -13.5700   25.1443 C   0  0  0  0  0  0  0  0  0  0  0  0
   -1.8846  -14.8921   25.2147 N   0  0  0  0  0  0  0  0  0  0  0  0
   -3.2472  -15.7401   24.6287 C   0  0  0  0  0  0  0  0  0  0  0  0
   -4.1761  -15.3591   23.9417 O   0  0  0  0  0  0  0  0  0  0  0  0
   -3.3555  -17.3930   25.2467 C   0  0  0  0  0  0  0  0  0  0  0  0
   -3.6414  -18.2948   24.2639 F   0  0  0  0  0  0  0  0  0  0  0  0
   -4.3583  -17.5591   26.1654 F   0  0  0  0  0  0  0  0  0  0  0  0
   -0.8189  -14.9562   24.2976 C   0  0  0  0  0  0  0  0  0  0  0  0
    0.0456  -10.2316   22.8357 H   0  0  0  0  0  0  0  0  0  0  0  0
    0.9417  -10.6693   21.6419 H   0  0  0  0  0  0  0  0  0  0  0  0
   -0.4535  -11.4079   22.2191 H   0  0  0  0  0  0  0  0  0  0  0  0
    1.7777  -11.8004   24.8542 H   0  0  0  0  0  0  0  0  0  0  0  0
    2.6526  -11.5947   23.3992 H   0  0  0  0  0  0  0  0  0  0  0  0
    4.9239  -14.1975   25.6545 H   0  0  0  0  0  0  0  0  0  0  0  0
    6.7656  -12.4664   25.1438 H   0  0  0  0  0  0  0  0  0  0  0  0
    8.0844  -11.2950   23.0588 H   0  0  0  0  0  0  0  0  0  0  0  0
    8.3774  -12.0942   20.4170 H   0  0  0  0  0  0  0  0  0  0  0  0
    1.2700  -14.0284   25.4020 H   0  0  0  0  0  0  0  0  0  0  0  0
   -0.3075  -14.4561   22.5491 H   0  0  0  0  0  0  0  0  0  0  0  0
   -0.2180  -13.0552   22.9141 H   0  0  0  0  0  0  0  0  0  0  0  0
   -0.7027  -13.3318   25.7923 H   0  0  0  0  0  0  0  0  0  0  0  0
   -2.3191  -12.7939   25.2890 H   0  0  0  0  0  0  0  0  0  0  0  0
   -2.4427  -17.7042   25.7578 H   0  0  0  0  0  0  0  0  0  0  0  0
   -0.9618  -15.9177   24.3848 H   0  0  0  0  0  0  0  0  0  0  0  0
   -1.4555  -15.1108   23.3711 H   0  0  0  0  0  0  0  0  0  0  0  0
  1  2  1  0
  2  3  1  0
  3  4  1  0
  4  5  2  0
  4  6  1  0
  6  7  1  0
  7  8  2  0
  8  9  1  0
  9 10  1  0
 10 11  2  0
 11 12  1  0
 12 13  2  0
 13 14  1  0
  3 15  1  0
 15 16  1  0
 16 17  1  0
 17 18  1  0
 18 19  1  0
 19 20  2  0
 19 21  1  0
 21 22  1  0
 21 23  1  0
 18 24  1  0
 14  6  2  0
 24 15  1  0
 13  9  1  0
  1 25  1  0
  1 26  1  0
  1 27  1  0
  2 28  1  0
  2 29  1  0
  7 30  1  0
  8 31  1  0
 10 32  1  0
 11 33  1  0
 15 34  1  0
 16 35  1  0
 16 36  1  0
 17 37  1  0
 17 38  1  0
 21 39  1  0
 24 40  1  0
 24 41  1  0
M  END
>  <Energy>  (1397) 
994.36544656585215

>  <compound_id>  (1397) 
8806

>  <target_id>  (1397) 
1

>  <reference_id>  (1397) 
106

>  <inspiration_ids>  (1397) 
[3, 106]

>  <energy_score>  (1397) 
837.5994776540339

>  <distance_score>  (1397) 
14.812116543406049

>  <path>  (1397) 
/opt/xchem-fragalysis-2/maxwin/BulkDock/SCRATCH/511014/C8806-P106/C8806-P106.minimised.mol

>  <scratch_subdir>  (1397) 
/opt/xchem-fragalysis-2/maxwin/BulkDock/SCRATCH/511014/C8806-P106

>  <fragmenstein_runtime>  (1397) 
18.8079617023468

>  <fragmenstein_outcome>  (1397) 
too moved

>  <fragmenstein_mode>  (1397) 
expansion

>  <fragmenstein_error>  (1397) 


$$$$
C8807-P3
     RDKit          3D

 40 43  0  0  0  0  0  0  0  0999 V2000
   -7.6063   -8.6377   28.4597 C   0  0  0  0  0  0  0  0  0  0  0  0
   -6.2934   -8.0643   28.7144 O   0  0  0  0  0  0  0  0  0  0  0  0
   -5.1338   -8.7026   28.0533 C   0  0  0  0  0  0  0  0  0  0  0  0
   -5.4523   -9.8582   27.4915 C   0  0  0  0  0  0  0  0  0  0  0  0
   -4.2201  -10.1407   27.1406 C   0  0  0  0  0  0  0  0  0  0  0  0
   -3.4247   -9.2419   26.4273 C   0  0  0  0  0  0  0  0  0  0  0  0
   -2.5472   -8.1635   26.7199 C   0  0  0  0  0  0  0  0  0  0  0  0
   -1.2826   -7.4677   25.3461 C   0  0  0  0  0  0  0  0  0  0  0  0
   -1.4173   -5.9647   25.1654 C   0  0  0  0  0  0  0  0  0  0  0  0
   -0.9747   -5.7971   26.5388 C   0  0  0  0  0  0  0  0  0  0  0  0
    0.2531   -7.0680   26.5662 C   0  0  0  0  0  0  0  0  0  0  0  0
    0.6250   -7.7519   25.3669 N   0  0  0  0  0  0  0  0  0  0  0  0
    2.3982   -7.3994   25.1331 C   0  0  0  0  0  0  0  0  0  0  0  0
    4.0380   -8.1628   25.3579 C   0  0  0  0  0  0  0  0  0  0  0  0
    5.2993   -7.7868   25.0418 C   0  0  0  0  0  0  0  0  0  0  0  0
    5.4612   -6.6849   24.2967 N   0  0  0  0  0  0  0  0  0  0  0  0
    6.5415   -6.0994   23.6960 C   0  0  0  0  0  0  0  0  0  0  0  0
    6.0054   -5.0732   22.9586 C   0  0  0  0  0  0  0  0  0  0  0  0
    4.6420   -5.0414   23.1297 N   0  0  0  0  0  0  0  0  0  0  0  0
    4.3283   -6.0485   23.9419 C   0  0  0  0  0  0  0  0  0  0  0  0
    3.0346   -6.4503   24.4116 N   0  0  0  0  0  0  0  0  0  0  0  0
   -3.5687   -7.7917   27.7488 C   0  0  0  0  0  0  0  0  0  0  0  0
   -8.3353   -7.9380   28.8804 H   0  0  0  0  0  0  0  0  0  0  0  0
   -7.7495   -9.5950   28.9658 H   0  0  0  0  0  0  0  0  0  0  0  0
   -7.8073   -8.7080   27.3860 H   0  0  0  0  0  0  0  0  0  0  0  0
   -6.2555  -10.5184   27.7371 H   0  0  0  0  0  0  0  0  0  0  0  0
   -3.7447  -11.1091   27.2981 H   0  0  0  0  0  0  0  0  0  0  0  0
   -3.9923   -9.2807   25.5004 H   0  0  0  0  0  0  0  0  0  0  0  0
   -1.6014   -7.7995   24.3775 H   0  0  0  0  0  0  0  0  0  0  0  0
   -0.7674   -5.6347   24.3498 H   0  0  0  0  0  0  0  0  0  0  0  0
   -2.3410   -5.4224   25.0046 H   0  0  0  0  0  0  0  0  0  0  0  0
   -1.8282   -5.9236   27.2042 H   0  0  0  0  0  0  0  0  0  0  0  0
   -0.6841   -4.7823   26.8501 H   0  0  0  0  0  0  0  0  0  0  0  0
    1.1562   -6.9151   27.0746 H   0  0  0  0  0  0  0  0  0  0  0  0
   -0.2973   -7.9166   26.9330 H   0  0  0  0  0  0  0  0  0  0  0  0
    4.0734   -9.1933   25.6043 H   0  0  0  0  0  0  0  0  0  0  0  0
    6.1873   -8.3672   25.2166 H   0  0  0  0  0  0  0  0  0  0  0  0
    7.5516   -6.4580   23.8288 H   0  0  0  0  0  0  0  0  0  0  0  0
    6.5136   -4.3562   22.3251 H   0  0  0  0  0  0  0  0  0  0  0  0
   -3.5455   -6.8193   28.2684 H   0  0  0  0  0  0  0  0  0  0  0  0
  1  2  1  0
  2  3  1  0
  3  4  2  0
  4  5  1  0
  5  6  2  0
  6  7  1  0
  7  8  1  0
  8  9  1  0
  9 10  1  0
 10 11  1  0
 11 12  1  0
 12 13  1  0
 13 14  1  0
 14 15  2  0
 15 16  1  0
 16 17  1  0
 17 18  2  0
 18 19  1  0
 19 20  2  0
 20 21  1  0
  7 22  2  0
 22  3  1  0
 12  8  1  0
 21 13  2  0
 20 16  1  0
  1 23  1  0
  1 24  1  0
  1 25  1  0
  4 26  1  0
  5 27  1  0
  6 28  1  0
  8 29  1  0
  9 30  1  0
  9 31  1  0
 10 32  1  0
 10 33  1  0
 11 34  1  0
 11 35  1  0
 14 36  1  0
 15 37  1  0
 17 38  1  0
 18 39  1  0
 22 40  1  0
M  END
>  <Energy>  (1398) 
676.68798967468967

>  <compound_id>  (1398) 
8807

>  <target_id>  (1398) 
1

>  <reference_id>  (1398) 
3

>  <inspiration_ids>  (1398) 
[3, 106]

>  <energy_score>  (1398) 
614.3908659153013

>  <distance_score>  (1398) 
14.329851961498797

>  <path>  (1398) 
/opt/xchem-fragalysis-2/maxwin/BulkDock/SCRATCH/511014/C8807-P3/C8807-P3.minimised.mol

>  <scratch_subdir>  (1398) 
/opt/xchem-fragalysis-2/maxwin/BulkDock/SCRATCH/511014/C8807-P3

>  <fragmenstein_runtime>  (1398) 
13.407384872436523

>  <fragmenstein_outcome>  (1398) 
too moved

>  <fragmenstein_mode>  (1398) 
expansion

>  <fragmenstein_error>  (1398) 


$$$$
C8807-P106
     RDKit          3D

 40 43  0  0  0  0  0  0  0  0999 V2000
   -9.2188  -13.1303   28.8240 C   0  0  0  0  0  0  0  0  0  0  0  0
   -8.1340  -13.5914   28.0145 O   0  0  0  0  0  0  0  0  0  0  0  0
   -6.9201  -13.0459   28.3470 C   0  0  0  0  0  0  0  0  0  0  0  0
   -6.4279  -12.8580   29.6477 C   0  0  0  0  0  0  0  0  0  0  0  0
   -5.0613  -12.3751   29.8056 C   0  0  0  0  0  0  0  0  0  0  0  0
   -3.9207  -12.1144   28.7391 C   0  0  0  0  0  0  0  0  0  0  0  0
   -4.2709  -12.0873   27.2140 C   0  0  0  0  0  0  0  0  0  0  0  0
   -3.3158  -11.8322   25.4428 C   0  0  0  0  0  0  0  0  0  0  0  0
   -5.1878  -12.0618   24.5490 C   0  0  0  0  0  0  0  0  0  0  0  0
   -4.0381  -11.4343   24.1684 C   0  0  0  0  0  0  0  0  0  0  0  0
   -3.5945  -10.0810   23.2228 C   0  0  0  0  0  0  0  0  0  0  0  0
   -2.6134  -10.2122   24.1811 N   0  0  0  0  0  0  0  0  0  0  0  0
   -1.8756   -9.4444   22.7394 C   0  0  0  0  0  0  0  0  0  0  0  0
   -2.0346  -10.1845   21.1963 C   0  0  0  0  0  0  0  0  0  0  0  0
   -1.8233   -9.4002   20.1541 C   0  0  0  0  0  0  0  0  0  0  0  0
   -0.8446   -8.5333   20.4853 N   0  0  0  0  0  0  0  0  0  0  0  0
    0.3036   -8.2617   19.7694 C   0  0  0  0  0  0  0  0  0  0  0  0
    0.8833   -8.8022   20.8974 C   0  0  0  0  0  0  0  0  0  0  0  0
    0.7323   -7.9805   21.9016 N   0  0  0  0  0  0  0  0  0  0  0  0
   -0.5208   -8.1981   21.8188 C   0  0  0  0  0  0  0  0  0  0  0  0
   -1.3365   -8.2907   22.8359 N   0  0  0  0  0  0  0  0  0  0  0  0
   -6.0194  -12.4640   27.1605 C   0  0  0  0  0  0  0  0  0  0  0  0
  -10.1550  -13.4469   28.3534 H   0  0  0  0  0  0  0  0  0  0  0  0
   -9.2610  -12.0389   28.8834 H   0  0  0  0  0  0  0  0  0  0  0  0
   -9.1758  -13.5405   29.8360 H   0  0  0  0  0  0  0  0  0  0  0  0
   -7.0198  -13.0602   30.5297 H   0  0  0  0  0  0  0  0  0  0  0  0
   -4.7879  -12.1075   30.8077 H   0  0  0  0  0  0  0  0  0  0  0  0
   -2.9736  -11.8609   29.1857 H   0  0  0  0  0  0  0  0  0  0  0  0
   -2.5762  -12.6455   25.4731 H   0  0  0  0  0  0  0  0  0  0  0  0
   -6.0723  -11.4184   24.7281 H   0  0  0  0  0  0  0  0  0  0  0  0
   -5.6068  -12.8600   23.8762 H   0  0  0  0  0  0  0  0  0  0  0  0
   -3.2745  -11.9600   23.8606 H   0  0  0  0  0  0  0  0  0  0  0  0
   -4.0610  -12.5737   24.1164 H   0  0  0  0  0  0  0  0  0  0  0  0
   -3.7751  -10.2947   22.1559 H   0  0  0  0  0  0  0  0  0  0  0  0
   -3.8144   -9.0152   23.1094 H   0  0  0  0  0  0  0  0  0  0  0  0
   -2.4718  -11.1583   21.0527 H   0  0  0  0  0  0  0  0  0  0  0  0
   -1.9732   -9.6791   19.1222 H   0  0  0  0  0  0  0  0  0  0  0  0
    0.3688   -8.3884   18.7000 H   0  0  0  0  0  0  0  0  0  0  0  0
    1.5113   -9.6266   21.0307 H   0  0  0  0  0  0  0  0  0  0  0  0
   -6.6055  -12.5274   26.2359 H   0  0  0  0  0  0  0  0  0  0  0  0
  1  2  1  0
  2  3  1  0
  3  4  2  0
  4  5  1  0
  5  6  2  0
  6  7  1  0
  7  8  1  0
  8  9  1  0
  9 10  1  0
 10 11  1  0
 11 12  1  0
 12 13  1  0
 13 14  1  0
 14 15  2  0
 15 16  1  0
 16 17  1  0
 17 18  2  0
 18 19  1  0
 19 20  2  0
 20 21  1  0
  7 22  2  0
 22  3  1  0
 12  8  1  0
 21 13  2  0
 20 16  1  0
  1 23  1  0
  1 24  1  0
  1 25  1  0
  4 26  1  0
  5 27  1  0
  6 28  1  0
  8 29  1  0
  9 30  1  0
  9 31  1  0
 10 32  1  0
 10 33  1  0
 11 34  1  0
 11 35  1  0
 14 36  1  0
 15 37  1  0
 17 38  1  0
 18 39  1  0
 22 40  1  0
M  END
>  <Energy>  (1399) 
1137.1410111596178

>  <compound_id>  (1399) 
8807

>  <target_id>  (1399) 
1

>  <reference_id>  (1399) 
106

>  <inspiration_ids>  (1399) 
[3, 106]

>  <energy_score>  (1399) 
1074.8438874002236

>  <distance_score>  (1399) 
14.69125631529385

>  <path>  (1399) 
/opt/xchem-fragalysis-2/maxwin/BulkDock/SCRATCH/511014/C8807-P106/C8807-P106.minimised.mol

>  <scratch_subdir>  (1399) 
/opt/xchem-fragalysis-2/maxwin/BulkDock/SCRATCH/511014/C8807-P106

>  <fragmenstein_runtime>  (1399) 
25.54071068763733

>  <fragmenstein_outcome>  (1399) 
too moved

>  <fragmenstein_mode>  (1399) 
expansion

>  <fragmenstein_error>  (1399) 


$$$$
C8808-P106
     RDKit          2D

  0  0  0  0  0  0  0  0  0  0999 V2000
M  END
>  <compound_id>  (1400) 
8808

>  <target_id>  (1400) 
1

>  <reference_id>  (1400) 
106

>  <inspiration_ids>  (1400) 
[3, 106]

>  <energy_score>  (1400) 
nan

>  <distance_score>  (1400) 
nan

>  <path>  (1400) 
/opt/xchem-fragalysis-2/maxwin/BulkDock/SCRATCH/511014/C8808-P106/C8808-P106.minimised.mol

>  <scratch_subdir>  (1400) 
/opt/xchem-fragalysis-2/maxwin/BulkDock/SCRATCH/511014/C8808-P106

>  <fragmenstein_runtime>  (1400) 
0.24253058433532715

>  <fragmenstein_outcome>  (1400) 
too distant

>  <fragmenstein_mode>  (1400) 
expansion

>  <fragmenstein_error>  (1400) 
DistanceError: hit1

$$$$
C8809-P3
     RDKit          3D

 40 43  0  0  0  0  0  0  0  0999 V2000
   -2.4265  -18.8776   26.6501 C   0  0  0  0  0  0  0  0  0  0  0  0
   -1.2334  -18.0471   26.6247 O   0  0  0  0  0  0  0  0  0  0  0  0
   -0.6766  -17.6390   27.8649 C   0  0  0  0  0  0  0  0  0  0  0  0
   -0.8574  -18.6192   28.8789 C   0  0  0  0  0  0  0  0  0  0  0  0
   -0.3232  -18.3769   30.1043 C   0  0  0  0  0  0  0  0  0  0  0  0
    0.4402  -17.2260   30.2532 C   0  0  0  0  0  0  0  0  0  0  0  0
    0.6401  -16.1487   29.2615 C   0  0  0  0  0  0  0  0  0  0  0  0
    0.1071  -16.0882   28.0087 C   0  0  0  0  0  0  0  0  0  0  0  0
    0.7656  -14.8935   26.4520 C   0  0  0  0  0  0  0  0  0  0  0  0
    1.0821  -13.5128   27.0113 C   0  0  0  0  0  0  0  0  0  0  0  0
    1.8510  -12.8114   25.7161 C   0  0  0  0  0  0  0  0  0  0  0  0
    3.1566  -13.0852   25.3278 N   0  0  0  0  0  0  0  0  0  0  0  0
    3.6723  -11.9102   24.0765 C   0  0  0  0  0  0  0  0  0  0  0  0
    4.5431  -10.2700   24.3697 C   0  0  0  0  0  0  0  0  0  0  0  0
    5.4401   -9.7876   23.4527 C   0  0  0  0  0  0  0  0  0  0  0  0
    5.5348  -10.4178   22.2264 N   0  0  0  0  0  0  0  0  0  0  0  0
    6.2956  -10.0424   21.1435 C   0  0  0  0  0  0  0  0  0  0  0  0
    5.8888  -10.8640   20.1266 C   0  0  0  0  0  0  0  0  0  0  0  0
    4.9281  -11.7426   20.5699 N   0  0  0  0  0  0  0  0  0  0  0  0
    4.7322  -11.5153   21.8637 C   0  0  0  0  0  0  0  0  0  0  0  0
    3.9204  -12.2367   22.7601 N   0  0  0  0  0  0  0  0  0  0  0  0
    2.4271  -14.6430   25.2942 C   0  0  0  0  0  0  0  0  0  0  0  0
   -2.1320  -19.9312   26.6560 H   0  0  0  0  0  0  0  0  0  0  0  0
   -3.0866  -18.6486   27.4882 H   0  0  0  0  0  0  0  0  0  0  0  0
   -2.9773  -18.6897   25.7247 H   0  0  0  0  0  0  0  0  0  0  0  0
   -1.3555  -19.5656   28.7159 H   0  0  0  0  0  0  0  0  0  0  0  0
   -0.4051  -19.0985   30.9104 H   0  0  0  0  0  0  0  0  0  0  0  0
    0.9679  -17.1933   31.2071 H   0  0  0  0  0  0  0  0  0  0  0  0
    1.3960  -15.4078   29.3619 H   0  0  0  0  0  0  0  0  0  0  0  0
   -0.0065  -15.1714   25.7216 H   0  0  0  0  0  0  0  0  0  0  0  0
    0.2441  -12.9228   27.3971 H   0  0  0  0  0  0  0  0  0  0  0  0
    1.6130  -13.5994   27.9692 H   0  0  0  0  0  0  0  0  0  0  0  0
    2.0638  -11.7906   25.5784 H   0  0  0  0  0  0  0  0  0  0  0  0
    1.0765  -12.8186   24.9897 H   0  0  0  0  0  0  0  0  0  0  0  0
    4.4552   -9.7434   25.3026 H   0  0  0  0  0  0  0  0  0  0  0  0
    6.0357   -8.8996   23.6161 H   0  0  0  0  0  0  0  0  0  0  0  0
    7.0143   -9.2389   21.1914 H   0  0  0  0  0  0  0  0  0  0  0  0
    6.2292  -10.8857   19.0994 H   0  0  0  0  0  0  0  0  0  0  0  0
    3.3122  -15.1856   25.5602 H   0  0  0  0  0  0  0  0  0  0  0  0
    2.4332  -15.0488   24.2943 H   0  0  0  0  0  0  0  0  0  0  0  0
  1  2  1  0
  2  3  1  0
  3  4  2  0
  4  5  1  0
  5  6  2  0
  6  7  1  0
  7  8  2  0
  8  9  1  0
  9 10  1  0
 10 11  1  0
 11 12  1  0
 12 13  1  0
 13 14  1  0
 14 15  2  0
 15 16  1  0
 16 17  1  0
 17 18  2  0
 18 19  1  0
 19 20  2  0
 20 21  1  0
 12 22  1  0
  8  3  1  0
 22  9  1  0
 21 13  2  0
 20 16  1  0
  1 23  1  0
  1 24  1  0
  1 25  1  0
  4 26  1  0
  5 27  1  0
  6 28  1  0
  7 29  1  0
  9 30  1  0
 10 31  1  0
 10 32  1  0
 11 33  1  0
 11 34  1  0
 14 35  1  0
 15 36  1  0
 17 37  1  0
 18 38  1  0
 22 39  1  0
 22 40  1  0
M  END
>  <Energy>  (1401) 
475.55694486853133

>  <compound_id>  (1401) 
8809

>  <target_id>  (1401) 
1

>  <reference_id>  (1401) 
3

>  <inspiration_ids>  (1401) 
[3, 106]

>  <energy_score>  (1401) 
416.3561532243377

>  <distance_score>  (1401) 
13.125729407827736

>  <path>  (1401) 
/opt/xchem-fragalysis-2/maxwin/BulkDock/SCRATCH/511014/C8809-P3/C8809-P3.minimised.mol

>  <scratch_subdir>  (1401) 
/opt/xchem-fragalysis-2/maxwin/BulkDock/SCRATCH/511014/C8809-P3

>  <fragmenstein_runtime>  (1401) 
12.176054000854492

>  <fragmenstein_outcome>  (1401) 
too moved

>  <fragmenstein_mode>  (1401) 
expansion

>  <fragmenstein_error>  (1401) 


$$$$
C8809-P106
     RDKit          3D

 40 43  0  0  0  0  0  0  0  0999 V2000
   -8.0040  -17.6892   22.9677 C   0  0  0  0  0  0  0  0  0  0  0  0
   -8.3927  -16.8005   24.0091 O   0  0  0  0  0  0  0  0  0  0  0  0
   -9.6459  -16.2609   23.8931 C   0  0  0  0  0  0  0  0  0  0  0  0
  -10.7202  -16.9657   23.3368 C   0  0  0  0  0  0  0  0  0  0  0  0
  -11.9982  -16.4199   23.3492 C   0  0  0  0  0  0  0  0  0  0  0  0
  -12.2071  -15.1688   23.9194 C   0  0  0  0  0  0  0  0  0  0  0  0
  -11.1359  -14.4464   24.4495 C   0  0  0  0  0  0  0  0  0  0  0  0
   -9.8312  -14.9580   24.4063 C   0  0  0  0  0  0  0  0  0  0  0  0
   -8.6358  -14.1054   24.7975 C   0  0  0  0  0  0  0  0  0  0  0  0
   -8.8731  -12.7056   25.3609 C   0  0  0  0  0  0  0  0  0  0  0  0
   -7.4761  -12.0875   25.2807 C   0  0  0  0  0  0  0  0  0  0  0  0
   -6.8800  -12.6289   24.0918 N   0  0  0  0  0  0  0  0  0  0  0  0
   -5.8321  -12.0760   23.3982 C   0  0  0  0  0  0  0  0  0  0  0  0
   -4.0913  -11.4104   24.1354 C   0  0  0  0  0  0  0  0  0  0  0  0
   -3.5182  -10.1324   23.1326 C   0  0  0  0  0  0  0  0  0  0  0  0
   -3.6496  -10.3427   21.5817 N   0  0  0  0  0  0  0  0  0  0  0  0
   -2.6855  -10.0440   20.6288 C   0  0  0  0  0  0  0  0  0  0  0  0
   -2.9544  -10.8407   19.5377 C   0  0  0  0  0  0  0  0  0  0  0  0
   -4.1018  -11.6387   19.6839 N   0  0  0  0  0  0  0  0  0  0  0  0
   -4.6754  -11.3794   20.8793 C   0  0  0  0  0  0  0  0  0  0  0  0
   -5.9383  -12.1665   21.8605 N   0  0  0  0  0  0  0  0  0  0  0  0
   -7.7230  -13.7339   23.6028 C   0  0  0  0  0  0  0  0  0  0  0  0
   -8.5580  -18.6283   22.9960 H   0  0  0  0  0  0  0  0  0  0  0  0
   -8.1135  -17.2119   21.9876 H   0  0  0  0  0  0  0  0  0  0  0  0
   -6.9440  -17.9224   23.1072 H   0  0  0  0  0  0  0  0  0  0  0  0
  -10.5942  -17.9404   22.8795 H   0  0  0  0  0  0  0  0  0  0  0  0
  -12.8333  -16.9655   22.9169 H   0  0  0  0  0  0  0  0  0  0  0  0
  -13.2069  -14.7406   23.9378 H   0  0  0  0  0  0  0  0  0  0  0  0
  -11.3428  -13.4604   24.8571 H   0  0  0  0  0  0  0  0  0  0  0  0
   -8.0562  -14.6692   25.5434 H   0  0  0  0  0  0  0  0  0  0  0  0
   -9.2699  -12.7183   26.3804 H   0  0  0  0  0  0  0  0  0  0  0  0
   -9.5582  -12.1237   24.7319 H   0  0  0  0  0  0  0  0  0  0  0  0
   -7.5307  -10.9977   25.2388 H   0  0  0  0  0  0  0  0  0  0  0  0
   -6.8858  -12.4479   26.1178 H   0  0  0  0  0  0  0  0  0  0  0  0
   -3.5957  -12.0087   24.8993 H   0  0  0  0  0  0  0  0  0  0  0  0
   -2.7336   -9.4080   23.3606 H   0  0  0  0  0  0  0  0  0  0  0  0
   -1.8682   -9.3688   20.8402 H   0  0  0  0  0  0  0  0  0  0  0  0
   -2.3736  -10.8988   18.6258 H   0  0  0  0  0  0  0  0  0  0  0  0
   -7.1238  -14.6074   23.3399 H   0  0  0  0  0  0  0  0  0  0  0  0
   -8.3069  -13.4118   22.7323 H   0  0  0  0  0  0  0  0  0  0  0  0
  1  2  1  0
  2  3  1  0
  3  4  2  0
  4  5  1  0
  5  6  2  0
  6  7  1  0
  7  8  2  0
  8  9  1  0
  9 10  1  0
 10 11  1  0
 11 12  1  0
 12 13  1  0
 13 14  1  0
 14 15  2  0
 15 16  1  0
 16 17  1  0
 17 18  2  0
 18 19  1  0
 19 20  2  0
 20 21  1  0
 12 22  1  0
  8  3  1  0
 22  9  1  0
 21 13  2  0
 20 16  1  0
  1 23  1  0
  1 24  1  0
  1 25  1  0
  4 26  1  0
  5 27  1  0
  6 28  1  0
  7 29  1  0
  9 30  1  0
 10 31  1  0
 10 32  1  0
 11 33  1  0
 11 34  1  0
 14 35  1  0
 15 36  1  0
 17 37  1  0
 18 38  1  0
 22 39  1  0
 22 40  1  0
M  END
>  <Energy>  (1402) 
284.52158918907935

>  <compound_id>  (1402) 
8809

>  <target_id>  (1402) 
1

>  <reference_id>  (1402) 
106

>  <inspiration_ids>  (1402) 
[3, 106]

>  <energy_score>  (1402) 
225.32079754488961

>  <distance_score>  (1402) 
16.84331684779708

>  <path>  (1402) 
/opt/xchem-fragalysis-2/maxwin/BulkDock/SCRATCH/511014/C8809-P106/C8809-P106.minimised.mol

>  <scratch_subdir>  (1402) 
/opt/xchem-fragalysis-2/maxwin/BulkDock/SCRATCH/511014/C8809-P106

>  <fragmenstein_runtime>  (1402) 
23.271398782730103

>  <fragmenstein_outcome>  (1402) 
too moved

>  <fragmenstein_mode>  (1402) 
expansion

>  <fragmenstein_error>  (1402) 


$$$$
C8810-P106
     RDKit          2D

  0  0  0  0  0  0  0  0  0  0999 V2000
M  END
>  <compound_id>  (1403) 
8810

>  <target_id>  (1403) 
1

>  <reference_id>  (1403) 
106

>  <inspiration_ids>  (1403) 
[3, 106]

>  <energy_score>  (1403) 
nan

>  <distance_score>  (1403) 
nan

>  <path>  (1403) 
/opt/xchem-fragalysis-2/maxwin/BulkDock/SCRATCH/511014/C8810-P106/C8810-P106.minimised.mol

>  <scratch_subdir>  (1403) 
/opt/xchem-fragalysis-2/maxwin/BulkDock/SCRATCH/511014/C8810-P106

>  <fragmenstein_runtime>  (1403) 
1.4053447246551514

>  <fragmenstein_outcome>  (1403) 
too distant

>  <fragmenstein_mode>  (1403) 
expansion

>  <fragmenstein_error>  (1403) 
DistanceError: hit1

$$$$
C8811-P3
     RDKit          3D

 31 34  0  0  0  0  0  0  0  0999 V2000
    3.5064   -5.7530   25.6561 C   0  0  0  0  0  0  0  0  0  0  0  0
    2.2330   -5.2357   25.6468 C   0  0  0  0  0  0  0  0  0  0  0  0
    1.4124   -6.3153   25.4357 N   0  0  0  0  0  0  0  0  0  0  0  0
    0.0886   -6.4025   25.1081 C   0  0  0  0  0  0  0  0  0  0  0  0
   -0.4047   -7.5717   24.6569 C   0  0  0  0  0  0  0  0  0  0  0  0
    0.5577   -9.0358   24.3344 C   0  0  0  0  0  0  0  0  0  0  0  0
   -0.1141  -10.8740   23.8940 C   0  0  0  0  0  0  0  0  0  0  0  0
   -0.7546  -11.8577   25.1017 N   0  0  0  0  0  0  0  0  0  0  0  0
   -2.2438  -12.6406   24.9341 C   0  0  0  0  0  0  0  0  0  0  0  0
   -2.5506  -14.3375   25.5716 C   0  0  0  0  0  0  0  0  0  0  0  0
   -1.9270  -15.7248   25.3486 C   0  0  0  0  0  0  0  0  0  0  0  0
   -2.4453  -16.7699   26.4294 C   0  0  0  0  0  0  0  0  0  0  0  0
   -3.6831  -16.1536   27.0854 C   0  0  0  0  0  0  0  0  0  0  0  0
   -3.7674  -14.7540   26.3841 N   0  0  0  0  0  0  0  0  0  0  0  0
   -2.5538  -12.3926   23.6269 N   0  0  0  0  0  0  0  0  0  0  0  0
   -1.5393  -11.5724   22.9655 O   0  0  0  0  0  0  0  0  0  0  0  0
    1.6781   -8.6966   25.1006 N   0  0  0  0  0  0  0  0  0  0  0  0
    2.1828   -7.4461   25.4353 C   0  0  0  0  0  0  0  0  0  0  0  0
    3.4628   -7.1149   25.5043 N   0  0  0  0  0  0  0  0  0  0  0  0
    4.4455   -5.2247   25.7645 H   0  0  0  0  0  0  0  0  0  0  0  0
    1.8570   -4.2250   25.7141 H   0  0  0  0  0  0  0  0  0  0  0  0
   -0.5102   -5.5060   25.2064 H   0  0  0  0  0  0  0  0  0  0  0  0
   -1.4572   -7.6063   24.4341 H   0  0  0  0  0  0  0  0  0  0  0  0
   -1.6974  -14.0206   26.0585 H   0  0  0  0  0  0  0  0  0  0  0  0
   -2.2249  -16.0198   24.3664 H   0  0  0  0  0  0  0  0  0  0  0  0
   -0.8347  -15.7294   25.4130 H   0  0  0  0  0  0  0  0  0  0  0  0
   -1.6636  -16.9469   27.1778 H   0  0  0  0  0  0  0  0  0  0  0  0
   -2.6671  -17.7463   25.9853 H   0  0  0  0  0  0  0  0  0  0  0  0
   -3.6020  -16.0681   28.1789 H   0  0  0  0  0  0  0  0  0  0  0  0
   -4.6076  -16.7278   26.9417 H   0  0  0  0  0  0  0  0  0  0  0  0
   -4.2252  -15.1616   25.5891 H   0  0  0  0  0  0  0  0  0  0  0  0
  1  2  2  0
  2  3  1  0
  3  4  1  0
  4  5  2  0
  5  6  1  0
  6  7  1  0
  7  8  2  0
  8  9  1  0
  9 10  1  0
 10 11  1  0
 11 12  1  0
 12 13  1  0
 13 14  1  0
  9 15  2  0
 15 16  1  0
  6 17  2  0
 17 18  1  0
 18 19  2  0
 19  1  1  0
 18  3  1  0
 16  7  1  0
 14 10  1  0
  1 20  1  0
  2 21  1  0
  4 22  1  0
  5 23  1  0
 10 24  1  0
 11 25  1  0
 11 26  1  0
 12 27  1  0
 12 28  1  0
 13 29  1  0
 13 30  1  0
 14 31  1  0
M  END
>  <Energy>  (1404) 
538.54540263606737

>  <compound_id>  (1404) 
8811

>  <target_id>  (1404) 
1

>  <reference_id>  (1404) 
3

>  <inspiration_ids>  (1404) 
[3, 106]

>  <energy_score>  (1404) 
420.77259407851875

>  <distance_score>  (1404) 
14.956637111236324

>  <path>  (1404) 
/opt/xchem-fragalysis-2/maxwin/BulkDock/SCRATCH/511014/C8811-P3/C8811-P3.minimised.mol

>  <scratch_subdir>  (1404) 
/opt/xchem-fragalysis-2/maxwin/BulkDock/SCRATCH/511014/C8811-P3

>  <fragmenstein_runtime>  (1404) 
8.291086912155151

>  <fragmenstein_outcome>  (1404) 
too moved

>  <fragmenstein_mode>  (1404) 
expansion

>  <fragmenstein_error>  (1404) 


$$$$
C8811-P106
     RDKit          3D

 31 34  0  0  0  0  0  0  0  0999 V2000
    8.8787   -5.0786   21.4024 C   0  0  0  0  0  0  0  0  0  0  0  0
   10.1101   -5.5700   21.7514 C   0  0  0  0  0  0  0  0  0  0  0  0
    9.9474   -6.9221   21.7391 N   0  0  0  0  0  0  0  0  0  0  0  0
   10.8458   -7.9323   22.0231 C   0  0  0  0  0  0  0  0  0  0  0  0
   10.4079   -9.2003   22.0330 C   0  0  0  0  0  0  0  0  0  0  0  0
    8.9182   -9.4040   21.8170 C   0  0  0  0  0  0  0  0  0  0  0  0
    8.3706  -10.7364   22.0960 C   0  0  0  0  0  0  0  0  0  0  0  0
    7.1505  -11.0513   22.5117 N   0  0  0  0  0  0  0  0  0  0  0  0
    7.2280  -12.4236   22.7457 C   0  0  0  0  0  0  0  0  0  0  0  0
    6.0886  -13.2343   23.3626 C   0  0  0  0  0  0  0  0  0  0  0  0
    6.3606  -13.7141   24.7925 C   0  0  0  0  0  0  0  0  0  0  0  0
    5.5433  -14.9858   24.9787 C   0  0  0  0  0  0  0  0  0  0  0  0
    4.9089  -15.2002   23.6284 C   0  0  0  0  0  0  0  0  0  0  0  0
    5.7566  -14.4985   22.6646 N   0  0  0  0  0  0  0  0  0  0  0  0
    8.4454  -12.9360   22.4983 N   0  0  0  0  0  0  0  0  0  0  0  0
    9.1953  -11.8322   22.0699 O   0  0  0  0  0  0  0  0  0  0  0  0
    8.1095   -8.4409   21.4645 N   0  0  0  0  0  0  0  0  0  0  0  0
    8.6240   -7.1834   21.3954 C   0  0  0  0  0  0  0  0  0  0  0  0
    8.0014   -6.0689   21.0854 N   0  0  0  0  0  0  0  0  0  0  0  0
    8.5659   -4.0576   21.3508 H   0  0  0  0  0  0  0  0  0  0  0  0
   11.0404   -5.0837   22.0094 H   0  0  0  0  0  0  0  0  0  0  0  0
   11.8715   -7.6504   22.2250 H   0  0  0  0  0  0  0  0  0  0  0  0
   11.0445  -10.0476   22.2508 H   0  0  0  0  0  0  0  0  0  0  0  0
    5.1935  -12.6173   23.3202 H   0  0  0  0  0  0  0  0  0  0  0  0
    7.4223  -13.9553   24.9354 H   0  0  0  0  0  0  0  0  0  0  0  0
    6.1234  -12.9498   25.5353 H   0  0  0  0  0  0  0  0  0  0  0  0
    4.8101  -14.8828   25.7813 H   0  0  0  0  0  0  0  0  0  0  0  0
    6.2080  -15.8184   25.2362 H   0  0  0  0  0  0  0  0  0  0  0  0
    4.7982  -16.2577   23.3770 H   0  0  0  0  0  0  0  0  0  0  0  0
    3.9437  -14.6944   23.6026 H   0  0  0  0  0  0  0  0  0  0  0  0
    6.6280  -15.0167   22.5270 H   0  0  0  0  0  0  0  0  0  0  0  0
  1  2  2  0
  2  3  1  0
  3  4  1  0
  4  5  2  0
  5  6  1  0
  6  7  1  0
  7  8  2  0
  8  9  1  0
  9 10  1  0
 10 11  1  0
 11 12  1  0
 12 13  1  0
 13 14  1  0
  9 15  2  0
 15 16  1  0
  6 17  2  0
 17 18  1  0
 18 19  2  0
 19  1  1  0
 18  3  1  0
 16  7  1  0
 14 10  1  0
  1 20  1  0
  2 21  1  0
  4 22  1  0
  5 23  1  0
 10 24  1  0
 11 25  1  0
 11 26  1  0
 12 27  1  0
 12 28  1  0
 13 29  1  0
 13 30  1  0
 14 31  1  0
M  END
>  <Energy>  (1405) 
98.64480362165439

>  <compound_id>  (1405) 
8811

>  <target_id>  (1405) 
1

>  <reference_id>  (1405) 
106

>  <inspiration_ids>  (1405) 
[3, 106]

>  <energy_score>  (1405) 
-19.128004935893046

>  <distance_score>  (1405) 
14.319395441302534

>  <path>  (1405) 
/opt/xchem-fragalysis-2/maxwin/BulkDock/SCRATCH/511014/C8811-P106/C8811-P106.minimised.mol

>  <scratch_subdir>  (1405) 
/opt/xchem-fragalysis-2/maxwin/BulkDock/SCRATCH/511014/C8811-P106

>  <fragmenstein_runtime>  (1405) 
19.522788763046265

>  <fragmenstein_outcome>  (1405) 
too moved

>  <fragmenstein_mode>  (1405) 
expansion

>  <fragmenstein_error>  (1405) 


$$$$
C8812-P106
     RDKit          2D

  0  0  0  0  0  0  0  0  0  0999 V2000
M  END
>  <compound_id>  (1406) 
8812

>  <target_id>  (1406) 
1

>  <reference_id>  (1406) 
106

>  <inspiration_ids>  (1406) 
[3, 106]

>  <energy_score>  (1406) 
nan

>  <distance_score>  (1406) 
nan

>  <path>  (1406) 
/opt/xchem-fragalysis-2/maxwin/BulkDock/SCRATCH/511014/C8812-P106/C8812-P106.minimised.mol

>  <scratch_subdir>  (1406) 
/opt/xchem-fragalysis-2/maxwin/BulkDock/SCRATCH/511014/C8812-P106

>  <fragmenstein_runtime>  (1406) 
1.7255783081054688

>  <fragmenstein_outcome>  (1406) 
too distant

>  <fragmenstein_mode>  (1406) 
expansion

>  <fragmenstein_error>  (1406) 
DistanceError: hit1

$$$$
C8813-P106
     RDKit          2D

  0  0  0  0  0  0  0  0  0  0999 V2000
M  END
>  <compound_id>  (1407) 
8813

>  <target_id>  (1407) 
1

>  <reference_id>  (1407) 
106

>  <inspiration_ids>  (1407) 
[3, 106]

>  <energy_score>  (1407) 
nan

>  <distance_score>  (1407) 
nan

>  <path>  (1407) 
/opt/xchem-fragalysis-2/maxwin/BulkDock/SCRATCH/511014/C8813-P106/C8813-P106.minimised.mol

>  <scratch_subdir>  (1407) 
/opt/xchem-fragalysis-2/maxwin/BulkDock/SCRATCH/511014/C8813-P106

>  <fragmenstein_runtime>  (1407) 
2.3713274002075195

>  <fragmenstein_outcome>  (1407) 
too distant

>  <fragmenstein_mode>  (1407) 
expansion

>  <fragmenstein_error>  (1407) 
DistanceError: hit1

$$$$
C8814-P106
     RDKit          2D

  0  0  0  0  0  0  0  0  0  0999 V2000
M  END
>  <compound_id>  (1408) 
8814

>  <target_id>  (1408) 
1

>  <reference_id>  (1408) 
106

>  <inspiration_ids>  (1408) 
[3, 106]

>  <energy_score>  (1408) 
nan

>  <distance_score>  (1408) 
nan

>  <path>  (1408) 
/opt/xchem-fragalysis-2/maxwin/BulkDock/SCRATCH/511014/C8814-P106/C8814-P106.minimised.mol

>  <scratch_subdir>  (1408) 
/opt/xchem-fragalysis-2/maxwin/BulkDock/SCRATCH/511014/C8814-P106

>  <fragmenstein_runtime>  (1408) 
0.3394622802734375

>  <fragmenstein_outcome>  (1408) 
too distant

>  <fragmenstein_mode>  (1408) 
expansion

>  <fragmenstein_error>  (1408) 
DistanceError: hit1

$$$$
C8815-P106
     RDKit          2D

  0  0  0  0  0  0  0  0  0  0999 V2000
M  END
>  <compound_id>  (1409) 
8815

>  <target_id>  (1409) 
1

>  <reference_id>  (1409) 
106

>  <inspiration_ids>  (1409) 
[3, 106]

>  <energy_score>  (1409) 
nan

>  <distance_score>  (1409) 
nan

>  <path>  (1409) 
/opt/xchem-fragalysis-2/maxwin/BulkDock/SCRATCH/511014/C8815-P106/C8815-P106.minimised.mol

>  <scratch_subdir>  (1409) 
/opt/xchem-fragalysis-2/maxwin/BulkDock/SCRATCH/511014/C8815-P106

>  <fragmenstein_runtime>  (1409) 
0.7590811252593994

>  <fragmenstein_outcome>  (1409) 
too distant

>  <fragmenstein_mode>  (1409) 
expansion

>  <fragmenstein_error>  (1409) 
DistanceError: hit1

$$$$
C8816-P106
     RDKit          2D

  0  0  0  0  0  0  0  0  0  0999 V2000
M  END
>  <compound_id>  (1410) 
8816

>  <target_id>  (1410) 
1

>  <reference_id>  (1410) 
106

>  <inspiration_ids>  (1410) 
[3, 106]

>  <energy_score>  (1410) 
nan

>  <distance_score>  (1410) 
nan

>  <path>  (1410) 
/opt/xchem-fragalysis-2/maxwin/BulkDock/SCRATCH/511014/C8816-P106/C8816-P106.minimised.mol

>  <scratch_subdir>  (1410) 
/opt/xchem-fragalysis-2/maxwin/BulkDock/SCRATCH/511014/C8816-P106

>  <fragmenstein_runtime>  (1410) 
0.796750545501709

>  <fragmenstein_outcome>  (1410) 
too distant

>  <fragmenstein_mode>  (1410) 
expansion

>  <fragmenstein_error>  (1410) 
DistanceError: hit1

$$$$
C8817-P106
     RDKit          2D

  0  0  0  0  0  0  0  0  0  0999 V2000
M  END
>  <compound_id>  (1411) 
8817

>  <target_id>  (1411) 
1

>  <reference_id>  (1411) 
106

>  <inspiration_ids>  (1411) 
[3, 106]

>  <energy_score>  (1411) 
nan

>  <distance_score>  (1411) 
nan

>  <path>  (1411) 
/opt/xchem-fragalysis-2/maxwin/BulkDock/SCRATCH/511014/C8817-P106/C8817-P106.minimised.mol

>  <scratch_subdir>  (1411) 
/opt/xchem-fragalysis-2/maxwin/BulkDock/SCRATCH/511014/C8817-P106

>  <fragmenstein_runtime>  (1411) 
0.4291362762451172

>  <fragmenstein_outcome>  (1411) 
too distant

>  <fragmenstein_mode>  (1411) 
expansion

>  <fragmenstein_error>  (1411) 
DistanceError: hit1

$$$$
C8818-P106
     RDKit          2D

  0  0  0  0  0  0  0  0  0  0999 V2000
M  END
>  <compound_id>  (1412) 
8818

>  <target_id>  (1412) 
1

>  <reference_id>  (1412) 
106

>  <inspiration_ids>  (1412) 
[3, 106]

>  <energy_score>  (1412) 
nan

>  <distance_score>  (1412) 
nan

>  <path>  (1412) 
/opt/xchem-fragalysis-2/maxwin/BulkDock/SCRATCH/511014/C8818-P106/C8818-P106.minimised.mol

>  <scratch_subdir>  (1412) 
/opt/xchem-fragalysis-2/maxwin/BulkDock/SCRATCH/511014/C8818-P106

>  <fragmenstein_runtime>  (1412) 
1.037484884262085

>  <fragmenstein_outcome>  (1412) 
too distant

>  <fragmenstein_mode>  (1412) 
expansion

>  <fragmenstein_error>  (1412) 
DistanceError: hit1

$$$$
C8819-P3
     RDKit          3D

 36 38  0  0  0  0  0  0  0  0999 V2000
   -7.1289  -11.1635   21.4836 N   0  0  0  0  0  0  0  0  0  0  0  0
   -7.3668  -12.2071   21.5729 C   0  0  0  0  0  0  0  0  0  0  0  0
   -8.3414  -12.2143   22.7926 O   0  0  0  0  0  0  0  0  0  0  0  0
   -6.9597  -13.2324   20.7030 N   0  0  0  0  0  0  0  0  0  0  0  0
   -7.3933  -14.6556   20.5603 C   0  0  0  0  0  0  0  0  0  0  0  0
   -6.7579  -15.4710   19.5080 C   0  0  0  0  0  0  0  0  0  0  0  0
   -5.4386  -15.5639   20.1661 C   0  0  0  0  0  0  0  0  0  0  0  0
   -5.4099  -14.0806   21.3411 C   0  0  0  0  0  0  0  0  0  0  0  0
   -3.5430  -13.7196   22.2201 C   0  0  0  0  0  0  0  0  0  0  0  0
   -1.8134  -12.8024   22.4650 O   0  0  0  0  0  0  0  0  0  0  0  0
   -0.5601  -12.4344   21.4127 C   0  0  0  0  0  0  0  0  0  0  0  0
   -0.8429  -12.8638   20.2955 O   0  0  0  0  0  0  0  0  0  0  0  0
    1.3037  -11.4477   21.3187 C   0  0  0  0  0  0  0  0  0  0  0  0
    2.8069  -12.3724   21.1625 C   0  0  0  0  0  0  0  0  0  0  0  0
    4.0825  -12.1112   20.8741 C   0  0  0  0  0  0  0  0  0  0  0  0
    4.2343  -11.0499   20.0783 N   0  0  0  0  0  0  0  0  0  0  0  0
    5.3456  -10.5809   19.4244 C   0  0  0  0  0  0  0  0  0  0  0  0
    4.8760   -9.5939   18.6088 C   0  0  0  0  0  0  0  0  0  0  0  0
    3.5267   -9.4551   18.7984 N   0  0  0  0  0  0  0  0  0  0  0  0
    3.0917  -10.3934   19.6737 C   0  0  0  0  0  0  0  0  0  0  0  0
    1.7091  -10.4422   20.4138 N   0  0  0  0  0  0  0  0  0  0  0  0
   -6.6393  -10.3528   21.1198 H   0  0  0  0  0  0  0  0  0  0  0  0
   -6.4143  -11.2720   20.7627 H   0  0  0  0  0  0  0  0  0  0  0  0
   -7.6152  -15.1687   21.5022 H   0  0  0  0  0  0  0  0  0  0  0  0
   -8.4253  -14.5094   20.2021 H   0  0  0  0  0  0  0  0  0  0  0  0
   -6.7229  -14.9667   18.5375 H   0  0  0  0  0  0  0  0  0  0  0  0
   -7.2361  -16.4455   19.3725 H   0  0  0  0  0  0  0  0  0  0  0  0
   -4.6355  -15.6165   19.4265 H   0  0  0  0  0  0  0  0  0  0  0  0
   -5.4687  -16.5404   20.6612 H   0  0  0  0  0  0  0  0  0  0  0  0
   -6.0124  -14.4391   22.0774 H   0  0  0  0  0  0  0  0  0  0  0  0
   -3.3424  -14.3715   23.0467 H   0  0  0  0  0  0  0  0  0  0  0  0
   -3.1220  -13.8871   21.3063 H   0  0  0  0  0  0  0  0  0  0  0  0
    2.6702  -13.3998   20.9738 H   0  0  0  0  0  0  0  0  0  0  0  0
    4.8761  -12.8471   20.8652 H   0  0  0  0  0  0  0  0  0  0  0  0
    6.3278  -11.0027   19.5778 H   0  0  0  0  0  0  0  0  0  0  0  0
    5.4136   -8.9767   17.9037 H   0  0  0  0  0  0  0  0  0  0  0  0
  1  2  1  0
  2  3  2  0
  2  4  1  0
  4  5  1  0
  5  6  1  0
  6  7  1  0
  7  8  1  0
  8  9  1  0
  9 10  1  0
 10 11  1  0
 11 12  2  0
 11 13  1  0
 13 14  1  0
 14 15  2  0
 15 16  1  0
 16 17  1  0
 17 18  2  0
 18 19  1  0
 19 20  2  0
 20 21  1  0
  8  4  1  0
 21 13  2  0
 20 16  1  0
  1 22  1  0
  1 23  1  0
  5 24  1  0
  5 25  1  0
  6 26  1  0
  6 27  1  0
  7 28  1  0
  7 29  1  0
  8 30  1  0
  9 31  1  0
  9 32  1  0
 14 33  1  0
 15 34  1  0
 17 35  1  0
 18 36  1  0
M  END
>  <Energy>  (1413) 
843.65266189130989

>  <compound_id>  (1413) 
8819

>  <target_id>  (1413) 
1

>  <reference_id>  (1413) 
3

>  <inspiration_ids>  (1413) 
[3, 106]

>  <energy_score>  (1413) 
802.4628751502584

>  <distance_score>  (1413) 
14.236070155880979

>  <path>  (1413) 
/opt/xchem-fragalysis-2/maxwin/BulkDock/SCRATCH/511014/C8819-P3/C8819-P3.minimised.mol

>  <scratch_subdir>  (1413) 
/opt/xchem-fragalysis-2/maxwin/BulkDock/SCRATCH/511014/C8819-P3

>  <fragmenstein_runtime>  (1413) 
14.68156123161316

>  <fragmenstein_outcome>  (1413) 
too moved

>  <fragmenstein_mode>  (1413) 
expansion

>  <fragmenstein_error>  (1413) 


$$$$
C8819-P106
     RDKit          3D

 36 38  0  0  0  0  0  0  0  0999 V2000
   -0.3578   -3.9259   19.5051 N   0  0  0  0  0  0  0  0  0  0  0  0
   -1.2514   -5.0653   19.5746 C   0  0  0  0  0  0  0  0  0  0  0  0
   -1.9848   -5.5088   18.7705 O   0  0  0  0  0  0  0  0  0  0  0  0
   -1.0328   -5.4470   20.9693 N   0  0  0  0  0  0  0  0  0  0  0  0
   -1.7549   -6.4433   21.8325 C   0  0  0  0  0  0  0  0  0  0  0  0
   -1.6730   -7.8984   21.4509 C   0  0  0  0  0  0  0  0  0  0  0  0
   -0.2120   -7.9304   21.6141 C   0  0  0  0  0  0  0  0  0  0  0  0
    0.1157   -6.5339   21.0599 C   0  0  0  0  0  0  0  0  0  0  0  0
    1.3915   -5.9115   21.7377 C   0  0  0  0  0  0  0  0  0  0  0  0
    1.8836   -4.7163   21.0363 O   0  0  0  0  0  0  0  0  0  0  0  0
    3.1997   -4.4193   21.2577 C   0  0  0  0  0  0  0  0  0  0  0  0
    3.9475   -5.0459   21.9892 O   0  0  0  0  0  0  0  0  0  0  0  0
    3.6987   -3.1746   20.4565 C   0  0  0  0  0  0  0  0  0  0  0  0
    3.1032   -2.9658   19.0943 C   0  0  0  0  0  0  0  0  0  0  0  0
    3.5621   -1.9085   18.4079 C   0  0  0  0  0  0  0  0  0  0  0  0
    4.5507   -1.1142   18.9607 N   0  0  0  0  0  0  0  0  0  0  0  0
    5.1852   -0.0200   18.4372 C   0  0  0  0  0  0  0  0  0  0  0  0
    6.0540    0.3861   19.4167 C   0  0  0  0  0  0  0  0  0  0  0  0
    6.0272   -0.4713   20.4866 N   0  0  0  0  0  0  0  0  0  0  0  0
    5.0763   -1.3549   20.2270 C   0  0  0  0  0  0  0  0  0  0  0  0
    4.6182   -2.4037   20.9866 N   0  0  0  0  0  0  0  0  0  0  0  0
    0.2229   -3.8990   20.3613 H   0  0  0  0  0  0  0  0  0  0  0  0
    0.0501   -3.7584   20.4417 H   0  0  0  0  0  0  0  0  0  0  0  0
   -2.8098   -6.1474   21.7555 H   0  0  0  0  0  0  0  0  0  0  0  0
   -1.4791   -6.2455   22.8817 H   0  0  0  0  0  0  0  0  0  0  0  0
   -2.2053   -8.5686   22.1276 H   0  0  0  0  0  0  0  0  0  0  0  0
   -1.9921   -8.0753   20.4190 H   0  0  0  0  0  0  0  0  0  0  0  0
    0.0768   -8.0048   22.6679 H   0  0  0  0  0  0  0  0  0  0  0  0
    0.2850   -8.7316   21.0665 H   0  0  0  0  0  0  0  0  0  0  0  0
    0.4121   -6.6920   20.0101 H   0  0  0  0  0  0  0  0  0  0  0  0
    2.1788   -6.6731   21.7626 H   0  0  0  0  0  0  0  0  0  0  0  0
    1.1504   -5.6062   22.7620 H   0  0  0  0  0  0  0  0  0  0  0  0
    2.3533   -3.6442   18.7088 H   0  0  0  0  0  0  0  0  0  0  0  0
    3.2080   -1.6544   17.4162 H   0  0  0  0  0  0  0  0  0  0  0  0
    4.9363    0.3837   17.4668 H   0  0  0  0  0  0  0  0  0  0  0  0
    6.6879    1.2617   19.4117 H   0  0  0  0  0  0  0  0  0  0  0  0
  1  2  1  0
  2  3  2  0
  2  4  1  0
  4  5  1  0
  5  6  1  0
  6  7  1  0
  7  8  1  0
  8  9  1  0
  9 10  1  0
 10 11  1  0
 11 12  2  0
 11 13  1  0
 13 14  1  0
 14 15  2  0
 15 16  1  0
 16 17  1  0
 17 18  2  0
 18 19  1  0
 19 20  2  0
 20 21  1  0
  8  4  1  0
 21 13  2  0
 20 16  1  0
  1 22  1  0
  1 23  1  0
  5 24  1  0
  5 25  1  0
  6 26  1  0
  6 27  1  0
  7 28  1  0
  7 29  1  0
  8 30  1  0
  9 31  1  0
  9 32  1  0
 14 33  1  0
 15 34  1  0
 17 35  1  0
 18 36  1  0
M  END
>  <Energy>  (1414) 
236.47763420851996

>  <compound_id>  (1414) 
8819

>  <target_id>  (1414) 
1

>  <reference_id>  (1414) 
106

>  <inspiration_ids>  (1414) 
[3, 106]

>  <energy_score>  (1414) 
195.28784746747783

>  <distance_score>  (1414) 
16.244851846839264

>  <path>  (1414) 
/opt/xchem-fragalysis-2/maxwin/BulkDock/SCRATCH/511014/C8819-P106/C8819-P106.minimised.mol

>  <scratch_subdir>  (1414) 
/opt/xchem-fragalysis-2/maxwin/BulkDock/SCRATCH/511014/C8819-P106

>  <fragmenstein_runtime>  (1414) 
30.76476502418518

>  <fragmenstein_outcome>  (1414) 
too moved

>  <fragmenstein_mode>  (1414) 
expansion

>  <fragmenstein_error>  (1414) 


$$$$
C8820-P3
     RDKit          3D

 38 40  0  0  0  0  0  0  0  0999 V2000
   -7.2748   -9.2787   27.9441 O   0  0  0  0  0  0  0  0  0  0  0  0
   -6.2695   -9.9936   27.7639 C   0  0  0  0  0  0  0  0  0  0  0  0
   -6.7097  -11.6347   27.8054 O   0  0  0  0  0  0  0  0  0  0  0  0
   -7.9675  -12.9042   28.3898 C   0  0  0  0  0  0  0  0  0  0  0  0
   -9.2717  -14.3880   27.9958 C   0  0  0  0  0  0  0  0  0  0  0  0
   -9.7810  -13.9171   26.6570 C   0  0  0  0  0  0  0  0  0  0  0  0
   -9.0518  -14.8951   25.8186 C   0  0  0  0  0  0  0  0  0  0  0  0
   -8.2146  -15.7928   26.8235 C   0  0  0  0  0  0  0  0  0  0  0  0
   -9.3660  -16.2819   27.5719 N   0  0  0  0  0  0  0  0  0  0  0  0
   -9.7914  -18.1311   28.5017 C   0  0  0  0  0  0  0  0  0  0  0  0
  -11.2353  -18.9949   28.8661 C   0  0  0  0  0  0  0  0  0  0  0  0
  -11.4593  -19.9729   27.9404 F   0  0  0  0  0  0  0  0  0  0  0  0
  -11.0537  -19.6830   30.0360 F   0  0  0  0  0  0  0  0  0  0  0  0
   -4.5955   -8.9215   27.6371 C   0  0  0  0  0  0  0  0  0  0  0  0
   -4.3146   -7.1559   28.4426 C   0  0  0  0  0  0  0  0  0  0  0  0
   -3.2610   -6.2504   28.4323 C   0  0  0  0  0  0  0  0  0  0  0  0
   -2.0917   -6.6657   27.7010 N   0  0  0  0  0  0  0  0  0  0  0  0
   -0.9470   -5.9658   27.3973 C   0  0  0  0  0  0  0  0  0  0  0  0
   -0.4654   -6.5342   26.2500 C   0  0  0  0  0  0  0  0  0  0  0  0
   -1.2706   -7.5780   25.8688 N   0  0  0  0  0  0  0  0  0  0  0  0
   -2.1770   -7.8534   26.8370 C   0  0  0  0  0  0  0  0  0  0  0  0
   -3.3930   -8.9960   26.8460 N   0  0  0  0  0  0  0  0  0  0  0  0
   -8.6333  -12.1675   28.8553 H   0  0  0  0  0  0  0  0  0  0  0  0
   -7.3411  -13.3506   29.1703 H   0  0  0  0  0  0  0  0  0  0  0  0
  -10.1090  -14.1838   28.6530 H   0  0  0  0  0  0  0  0  0  0  0  0
  -10.8654  -14.0276   26.5699 H   0  0  0  0  0  0  0  0  0  0  0  0
   -9.5202  -12.8813   26.4243 H   0  0  0  0  0  0  0  0  0  0  0  0
   -8.5273  -14.3783   25.0292 H   0  0  0  0  0  0  0  0  0  0  0  0
   -9.8142  -15.4409   25.2669 H   0  0  0  0  0  0  0  0  0  0  0  0
   -7.5008  -15.1846   27.4036 H   0  0  0  0  0  0  0  0  0  0  0  0
   -7.4905  -16.4665   26.4465 H   0  0  0  0  0  0  0  0  0  0  0  0
   -9.5262  -18.8773   27.7271 H   0  0  0  0  0  0  0  0  0  0  0  0
   -9.6842  -18.1723   29.5955 H   0  0  0  0  0  0  0  0  0  0  0  0
  -12.1181  -18.3811   28.9735 H   0  0  0  0  0  0  0  0  0  0  0  0
   -3.5359   -7.7787   28.2249 H   0  0  0  0  0  0  0  0  0  0  0  0
   -3.2906   -5.2504   28.8437 H   0  0  0  0  0  0  0  0  0  0  0  0
   -0.6425   -5.0946   27.9591 H   0  0  0  0  0  0  0  0  0  0  0  0
    0.3821   -6.2265   25.6514 H   0  0  0  0  0  0  0  0  0  0  0  0
  1  2  2  0
  2  3  1  0
  3  4  1  0
  4  5  1  0
  5  6  1  0
  6  7  1  0
  7  8  1  0
  8  9  1  0
  9 10  1  0
 10 11  1  0
 11 12  1  0
 11 13  1  0
  2 14  1  0
 14 15  1  0
 15 16  2  0
 16 17  1  0
 17 18  1  0
 18 19  2  0
 19 20  1  0
 20 21  2  0
 21 22  1  0
  9  5  1  0
 22 14  2  0
 21 17  1  0
  4 23  1  0
  4 24  1  0
  5 25  1  0
  6 26  1  0
  6 27  1  0
  7 28  1  0
  7 29  1  0
  8 30  1  0
  8 31  1  0
 10 32  1  0
 10 33  1  0
 11 34  1  0
 15 35  1  0
 16 36  1  0
 18 37  1  0
 19 38  1  0
M  END
>  <Energy>  (1415) 
980.84536742431578

>  <compound_id>  (1415) 
8820

>  <target_id>  (1415) 
1

>  <reference_id>  (1415) 
3

>  <inspiration_ids>  (1415) 
[3, 106]

>  <energy_score>  (1415) 
820.380845743678

>  <distance_score>  (1415) 
16.106570297045963

>  <path>  (1415) 
/opt/xchem-fragalysis-2/maxwin/BulkDock/SCRATCH/511014/C8820-P3/C8820-P3.minimised.mol

>  <scratch_subdir>  (1415) 
/opt/xchem-fragalysis-2/maxwin/BulkDock/SCRATCH/511014/C8820-P3

>  <fragmenstein_runtime>  (1415) 
13.382959842681885

>  <fragmenstein_outcome>  (1415) 
too moved

>  <fragmenstein_mode>  (1415) 
expansion

>  <fragmenstein_error>  (1415) 


$$$$
C8820-P106
     RDKit          3D

 38 40  0  0  0  0  0  0  0  0999 V2000
    3.5125  -18.0187   19.8551 O   0  0  0  0  0  0  0  0  0  0  0  0
    2.7689  -17.0514   19.7012 C   0  0  0  0  0  0  0  0  0  0  0  0
    1.4045  -17.1611   19.8322 O   0  0  0  0  0  0  0  0  0  0  0  0
    0.8341  -18.5590   20.1287 C   0  0  0  0  0  0  0  0  0  0  0  0
   -0.7454  -18.6290   20.4941 C   0  0  0  0  0  0  0  0  0  0  0  0
   -1.5852  -18.0742   19.3211 C   0  0  0  0  0  0  0  0  0  0  0  0
   -2.8209  -18.9564   19.1921 C   0  0  0  0  0  0  0  0  0  0  0  0
   -2.9489  -19.6083   20.5409 C   0  0  0  0  0  0  0  0  0  0  0  0
   -1.5477  -19.8512   20.9208 N   0  0  0  0  0  0  0  0  0  0  0  0
   -1.4576  -20.4809   22.2826 C   0  0  0  0  0  0  0  0  0  0  0  0
   -2.6161  -20.4450   23.3645 C   0  0  0  0  0  0  0  0  0  0  0  0
   -2.8140  -21.6611   23.9452 F   0  0  0  0  0  0  0  0  0  0  0  0
   -2.2219  -19.6303   24.3860 F   0  0  0  0  0  0  0  0  0  0  0  0
    3.5193  -15.6264   19.4079 C   0  0  0  0  0  0  0  0  0  0  0  0
    4.4526  -15.1596   20.5202 C   0  0  0  0  0  0  0  0  0  0  0  0
    5.3332  -14.1812   20.2347 C   0  0  0  0  0  0  0  0  0  0  0  0
    5.3184  -13.5983   18.9789 N   0  0  0  0  0  0  0  0  0  0  0  0
    6.1240  -12.6182   18.4452 C   0  0  0  0  0  0  0  0  0  0  0  0
    5.5909  -12.3545   17.2073 C   0  0  0  0  0  0  0  0  0  0  0  0
    4.5019  -13.1641   16.9675 N   0  0  0  0  0  0  0  0  0  0  0  0
    4.3706  -13.9617   18.0184 C   0  0  0  0  0  0  0  0  0  0  0  0
    3.4797  -15.0141   18.2380 N   0  0  0  0  0  0  0  0  0  0  0  0
    1.0296  -19.1688   19.2403 H   0  0  0  0  0  0  0  0  0  0  0  0
    1.3971  -18.9526   20.9820 H   0  0  0  0  0  0  0  0  0  0  0  0
   -0.7947  -17.9033   21.2757 H   0  0  0  0  0  0  0  0  0  0  0  0
   -1.8846  -17.0402   19.5281 H   0  0  0  0  0  0  0  0  0  0  0  0
   -1.0330  -18.0738   18.3749 H   0  0  0  0  0  0  0  0  0  0  0  0
   -2.6530  -19.7135   18.4162 H   0  0  0  0  0  0  0  0  0  0  0  0
   -3.7093  -18.3811   18.9147 H   0  0  0  0  0  0  0  0  0  0  0  0
   -3.5296  -20.5343   20.4818 H   0  0  0  0  0  0  0  0  0  0  0  0
   -3.4443  -18.9097   21.2227 H   0  0  0  0  0  0  0  0  0  0  0  0
   -0.5252  -20.1481   22.7522 H   0  0  0  0  0  0  0  0  0  0  0  0
   -1.3051  -21.5465   22.0682 H   0  0  0  0  0  0  0  0  0  0  0  0
   -3.5795  -20.0995   22.9901 H   0  0  0  0  0  0  0  0  0  0  0  0
    4.4060  -15.6691   21.4740 H   0  0  0  0  0  0  0  0  0  0  0  0
    6.0616  -13.8182   20.9478 H   0  0  0  0  0  0  0  0  0  0  0  0
    6.9592  -12.1982   18.9854 H   0  0  0  0  0  0  0  0  0  0  0  0
    5.9238  -11.6323   16.4725 H   0  0  0  0  0  0  0  0  0  0  0  0
  1  2  2  0
  2  3  1  0
  3  4  1  0
  4  5  1  0
  5  6  1  0
  6  7  1  0
  7  8  1  0
  8  9  1  0
  9 10  1  0
 10 11  1  0
 11 12  1  0
 11 13  1  0
  2 14  1  0
 14 15  1  0
 15 16  2  0
 16 17  1  0
 17 18  1  0
 18 19  2  0
 19 20  1  0
 20 21  2  0
 21 22  1  0
  9  5  1  0
 22 14  2  0
 21 17  1  0
  4 23  1  0
  4 24  1  0
  5 25  1  0
  6 26  1  0
  6 27  1  0
  7 28  1  0
  7 29  1  0
  8 30  1  0
  8 31  1  0
 10 32  1  0
 10 33  1  0
 11 34  1  0
 15 35  1  0
 16 36  1  0
 18 37  1  0
 19 38  1  0
M  END
>  <Energy>  (1416) 
168.63939375441751

>  <compound_id>  (1416) 
8820

>  <target_id>  (1416) 
1

>  <reference_id>  (1416) 
106

>  <inspiration_ids>  (1416) 
[3, 106]

>  <energy_score>  (1416) 
8.174872073783717

>  <distance_score>  (1416) 
14.670534163111423

>  <path>  (1416) 
/opt/xchem-fragalysis-2/maxwin/BulkDock/SCRATCH/511014/C8820-P106/C8820-P106.minimised.mol

>  <scratch_subdir>  (1416) 
/opt/xchem-fragalysis-2/maxwin/BulkDock/SCRATCH/511014/C8820-P106

>  <fragmenstein_runtime>  (1416) 
24.45732355117798

>  <fragmenstein_outcome>  (1416) 
too moved

>  <fragmenstein_mode>  (1416) 
expansion

>  <fragmenstein_error>  (1416) 


$$$$
C8821-P3
     RDKit          3D

 37 39  0  0  0  0  0  0  0  0999 V2000
   -0.5153  -18.5827   26.8780 C   0  0  0  0  0  0  0  0  0  0  0  0
   -1.4718  -17.4504   26.4126 C   0  0  0  0  0  0  0  0  0  0  0  0
   -2.6405  -17.7762   26.6829 O   0  0  0  0  0  0  0  0  0  0  0  0
   -1.1090  -15.6606   25.7576 N   0  0  0  0  0  0  0  0  0  0  0  0
   -2.0216  -14.4373   25.5943 C   0  0  0  0  0  0  0  0  0  0  0  0
   -3.1565  -15.0971   25.5924 C   0  0  0  0  0  0  0  0  0  0  0  0
   -2.5080  -15.7783   24.3452 C   0  0  0  0  0  0  0  0  0  0  0  0
   -1.1608  -15.3420   24.0005 C   0  0  0  0  0  0  0  0  0  0  0  0
   -1.4229  -13.6260   22.4653 C   0  0  0  0  0  0  0  0  0  0  0  0
    0.0253  -12.5002   21.5415 O   0  0  0  0  0  0  0  0  0  0  0  0
    1.2390  -11.1540   21.1012 C   0  0  0  0  0  0  0  0  0  0  0  0
    1.1363  -10.2486   21.8717 O   0  0  0  0  0  0  0  0  0  0  0  0
    2.5359  -10.6699   19.6445 C   0  0  0  0  0  0  0  0  0  0  0  0
    3.0853   -8.9766   19.0755 C   0  0  0  0  0  0  0  0  0  0  0  0
    4.0787   -8.6336   18.2355 C   0  0  0  0  0  0  0  0  0  0  0  0
    4.6820   -9.6332   17.5301 N   0  0  0  0  0  0  0  0  0  0  0  0
    5.7135   -9.5525   16.6344 C   0  0  0  0  0  0  0  0  0  0  0  0
    5.8565  -10.8281   16.1614 C   0  0  0  0  0  0  0  0  0  0  0  0
    4.9229  -11.6622   16.7266 N   0  0  0  0  0  0  0  0  0  0  0  0
    4.1811  -10.9465   17.5600 C   0  0  0  0  0  0  0  0  0  0  0  0
    3.0183  -11.3642   18.3987 N   0  0  0  0  0  0  0  0  0  0  0  0
    0.4187  -19.1051   26.7540 H   0  0  0  0  0  0  0  0  0  0  0  0
   -1.1933  -19.4327   27.1460 H   0  0  0  0  0  0  0  0  0  0  0  0
   -0.3975  -18.2436   27.9326 H   0  0  0  0  0  0  0  0  0  0  0  0
   -2.4061  -13.6623   24.9233 H   0  0  0  0  0  0  0  0  0  0  0  0
   -1.6089  -13.4948   25.9933 H   0  0  0  0  0  0  0  0  0  0  0  0
   -3.3771  -15.8340   26.2945 H   0  0  0  0  0  0  0  0  0  0  0  0
   -3.9274  -14.4568   25.8776 H   0  0  0  0  0  0  0  0  0  0  0  0
   -2.5024  -16.6603   24.9855 H   0  0  0  0  0  0  0  0  0  0  0  0
   -2.2898  -16.7601   24.0715 H   0  0  0  0  0  0  0  0  0  0  0  0
   -0.2978  -16.0233   24.0895 H   0  0  0  0  0  0  0  0  0  0  0  0
   -1.9905  -12.7443   22.9076 H   0  0  0  0  0  0  0  0  0  0  0  0
   -2.0833  -13.7902   21.6370 H   0  0  0  0  0  0  0  0  0  0  0  0
    2.4088   -8.1717   19.2345 H   0  0  0  0  0  0  0  0  0  0  0  0
    4.2937   -7.6117   17.9536 H   0  0  0  0  0  0  0  0  0  0  0  0
    6.2261   -8.6342   16.3968 H   0  0  0  0  0  0  0  0  0  0  0  0
    6.5626  -11.1987   15.4295 H   0  0  0  0  0  0  0  0  0  0  0  0
  1  2  1  0
  2  3  2  0
  2  4  1  0
  4  5  1  0
  5  6  1  0
  6  7  1  0
  7  8  1  0
  8  9  1  0
  9 10  1  0
 10 11  1  0
 11 12  2  0
 11 13  1  0
 13 14  1  0
 14 15  2  0
 15 16  1  0
 16 17  1  0
 17 18  2  0
 18 19  1  0
 19 20  2  0
 20 21  1  0
  8  4  1  0
 21 13  2  0
 20 16  1  0
  1 22  1  0
  1 23  1  0
  1 24  1  0
  5 25  1  0
  5 26  1  0
  6 27  1  0
  6 28  1  0
  7 29  1  0
  7 30  1  0
  8 31  1  0
  9 32  1  0
  9 33  1  0
 14 34  1  0
 15 35  1  0
 17 36  1  0
 18 37  1  0
M  END
>  <Energy>  (1417) 
1242.293482391806

>  <compound_id>  (1417) 
8821

>  <target_id>  (1417) 
1

>  <reference_id>  (1417) 
3

>  <inspiration_ids>  (1417) 
[3, 106]

>  <energy_score>  (1417) 
1130.3814104942344

>  <distance_score>  (1417) 
12.83055024433963

>  <path>  (1417) 
/opt/xchem-fragalysis-2/maxwin/BulkDock/SCRATCH/511014/C8821-P3/C8821-P3.minimised.mol

>  <scratch_subdir>  (1417) 
/opt/xchem-fragalysis-2/maxwin/BulkDock/SCRATCH/511014/C8821-P3

>  <fragmenstein_runtime>  (1417) 
13.034437656402588

>  <fragmenstein_outcome>  (1417) 
too moved

>  <fragmenstein_mode>  (1417) 
expansion

>  <fragmenstein_error>  (1417) 


$$$$
C8821-P106
     RDKit          3D

 37 39  0  0  0  0  0  0  0  0999 V2000
    3.3884  -12.4921   14.7149 C   0  0  0  0  0  0  0  0  0  0  0  0
    2.9953  -13.8761   15.1906 C   0  0  0  0  0  0  0  0  0  0  0  0
    1.8648  -14.0649   15.5581 O   0  0  0  0  0  0  0  0  0  0  0  0
    4.0801  -14.7865   15.0234 N   0  0  0  0  0  0  0  0  0  0  0  0
    4.1327  -16.2835   15.1435 C   0  0  0  0  0  0  0  0  0  0  0  0
    3.7014  -16.8348   16.4873 C   0  0  0  0  0  0  0  0  0  0  0  0
    4.1415  -15.7169   17.3627 C   0  0  0  0  0  0  0  0  0  0  0  0
    4.9171  -14.8850   16.3399 C   0  0  0  0  0  0  0  0  0  0  0  0
    5.3499  -13.5257   16.9745 C   0  0  0  0  0  0  0  0  0  0  0  0
    6.0400  -12.7542   15.9766 O   0  0  0  0  0  0  0  0  0  0  0  0
    6.6281  -11.6071   16.3800 C   0  0  0  0  0  0  0  0  0  0  0  0
    6.8416  -11.2079   17.5068 O   0  0  0  0  0  0  0  0  0  0  0  0
    6.9104  -10.7864   15.1299 C   0  0  0  0  0  0  0  0  0  0  0  0
    5.9911   -9.6176   14.9281 C   0  0  0  0  0  0  0  0  0  0  0  0
    6.0981   -9.0172   13.7361 C   0  0  0  0  0  0  0  0  0  0  0  0
    7.0260   -9.4865   12.8227 N   0  0  0  0  0  0  0  0  0  0  0  0
    7.2454   -9.1219   11.5229 C   0  0  0  0  0  0  0  0  0  0  0  0
    8.2713   -9.9217   11.0859 C   0  0  0  0  0  0  0  0  0  0  0  0
    8.6696  -10.7835   12.0750 N   0  0  0  0  0  0  0  0  0  0  0  0
    7.8942  -10.5372   13.1138 C   0  0  0  0  0  0  0  0  0  0  0  0
    7.8403  -11.1851   14.3117 N   0  0  0  0  0  0  0  0  0  0  0  0
    4.3084  -12.5109   14.1250 H   0  0  0  0  0  0  0  0  0  0  0  0
    3.4967  -11.8161   15.5650 H   0  0  0  0  0  0  0  0  0  0  0  0
    2.5963  -12.1126   14.0613 H   0  0  0  0  0  0  0  0  0  0  0  0
    5.1070  -16.6667   14.8000 H   0  0  0  0  0  0  0  0  0  0  0  0
    3.4197  -16.6496   14.3923 H   0  0  0  0  0  0  0  0  0  0  0  0
    4.2100  -17.7786   16.7076 H   0  0  0  0  0  0  0  0  0  0  0  0
    2.6342  -17.0162   16.5268 H   0  0  0  0  0  0  0  0  0  0  0  0
    3.2902  -15.1651   17.7725 H   0  0  0  0  0  0  0  0  0  0  0  0
    4.7898  -16.0599   18.1714 H   0  0  0  0  0  0  0  0  0  0  0  0
    5.8901  -15.3464   16.0858 H   0  0  0  0  0  0  0  0  0  0  0  0
    4.4833  -12.9617   17.3340 H   0  0  0  0  0  0  0  0  0  0  0  0
    6.0208  -13.7153   17.8210 H   0  0  0  0  0  0  0  0  0  0  0  0
    5.2770   -9.3511   15.6954 H   0  0  0  0  0  0  0  0  0  0  0  0
    5.4613   -8.2045   13.4233 H   0  0  0  0  0  0  0  0  0  0  0  0
    6.6662   -8.3710   11.0140 H   0  0  0  0  0  0  0  0  0  0  0  0
    8.7420   -9.9274   10.1110 H   0  0  0  0  0  0  0  0  0  0  0  0
  1  2  1  0
  2  3  2  0
  2  4  1  0
  4  5  1  0
  5  6  1  0
  6  7  1  0
  7  8  1  0
  8  9  1  0
  9 10  1  0
 10 11  1  0
 11 12  2  0
 11 13  1  0
 13 14  1  0
 14 15  2  0
 15 16  1  0
 16 17  1  0
 17 18  2  0
 18 19  1  0
 19 20  2  0
 20 21  1  0
  8  4  1  0
 21 13  2  0
 20 16  1  0
  1 22  1  0
  1 23  1  0
  1 24  1  0
  5 25  1  0
  5 26  1  0
  6 27  1  0
  6 28  1  0
  7 29  1  0
  7 30  1  0
  8 31  1  0
  9 32  1  0
  9 33  1  0
 14 34  1  0
 15 35  1  0
 17 36  1  0
 18 37  1  0
M  END
>  <Energy>  (1418) 
133.6771359099871

>  <compound_id>  (1418) 
8821

>  <target_id>  (1418) 
1

>  <reference_id>  (1418) 
106

>  <inspiration_ids>  (1418) 
[3, 106]

>  <energy_score>  (1418) 
21.765064012415678

>  <distance_score>  (1418) 
17.36966138361736

>  <path>  (1418) 
/opt/xchem-fragalysis-2/maxwin/BulkDock/SCRATCH/511014/C8821-P106/C8821-P106.minimised.mol

>  <scratch_subdir>  (1418) 
/opt/xchem-fragalysis-2/maxwin/BulkDock/SCRATCH/511014/C8821-P106

>  <fragmenstein_runtime>  (1418) 
25.645812034606934

>  <fragmenstein_outcome>  (1418) 
too moved

>  <fragmenstein_mode>  (1418) 
expansion

>  <fragmenstein_error>  (1418) 


$$$$
C8822-P106
     RDKit          2D

  0  0  0  0  0  0  0  0  0  0999 V2000
M  END
>  <compound_id>  (1419) 
8822

>  <target_id>  (1419) 
1

>  <reference_id>  (1419) 
106

>  <inspiration_ids>  (1419) 
[3, 106]

>  <energy_score>  (1419) 
nan

>  <distance_score>  (1419) 
nan

>  <path>  (1419) 
/opt/xchem-fragalysis-2/maxwin/BulkDock/SCRATCH/511014/C8822-P106/C8822-P106.minimised.mol

>  <scratch_subdir>  (1419) 
/opt/xchem-fragalysis-2/maxwin/BulkDock/SCRATCH/511014/C8822-P106

>  <fragmenstein_runtime>  (1419) 
1.9203381538391113

>  <fragmenstein_outcome>  (1419) 
too distant

>  <fragmenstein_mode>  (1419) 
expansion

>  <fragmenstein_error>  (1419) 
DistanceError: hit1

$$$$
C8823-P106
     RDKit          2D

  0  0  0  0  0  0  0  0  0  0999 V2000
M  END
>  <compound_id>  (1420) 
8823

>  <target_id>  (1420) 
1

>  <reference_id>  (1420) 
106

>  <inspiration_ids>  (1420) 
[3, 106]

>  <energy_score>  (1420) 
nan

>  <distance_score>  (1420) 
nan

>  <path>  (1420) 
/opt/xchem-fragalysis-2/maxwin/BulkDock/SCRATCH/511014/C8823-P106/C8823-P106.minimised.mol

>  <scratch_subdir>  (1420) 
/opt/xchem-fragalysis-2/maxwin/BulkDock/SCRATCH/511014/C8823-P106

>  <fragmenstein_runtime>  (1420) 
0.22456073760986328

>  <fragmenstein_outcome>  (1420) 
too distant

>  <fragmenstein_mode>  (1420) 
expansion

>  <fragmenstein_error>  (1420) 
DistanceError: hit1

$$$$
C8824-P106
     RDKit          2D

  0  0  0  0  0  0  0  0  0  0999 V2000
M  END
>  <compound_id>  (1421) 
8824

>  <target_id>  (1421) 
1

>  <reference_id>  (1421) 
106

>  <inspiration_ids>  (1421) 
[3, 106]

>  <energy_score>  (1421) 
nan

>  <distance_score>  (1421) 
nan

>  <path>  (1421) 
/opt/xchem-fragalysis-2/maxwin/BulkDock/SCRATCH/511014/C8824-P106/C8824-P106.minimised.mol

>  <scratch_subdir>  (1421) 
/opt/xchem-fragalysis-2/maxwin/BulkDock/SCRATCH/511014/C8824-P106

>  <fragmenstein_runtime>  (1421) 
0.22843122482299805

>  <fragmenstein_outcome>  (1421) 
too distant

>  <fragmenstein_mode>  (1421) 
expansion

>  <fragmenstein_error>  (1421) 
DistanceError: hit1

$$$$
C8825-P106
     RDKit          2D

  0  0  0  0  0  0  0  0  0  0999 V2000
M  END
>  <compound_id>  (1422) 
8825

>  <target_id>  (1422) 
1

>  <reference_id>  (1422) 
106

>  <inspiration_ids>  (1422) 
[3, 106]

>  <energy_score>  (1422) 
nan

>  <distance_score>  (1422) 
nan

>  <path>  (1422) 
/opt/xchem-fragalysis-2/maxwin/BulkDock/SCRATCH/511014/C8825-P106/C8825-P106.minimised.mol

>  <scratch_subdir>  (1422) 
/opt/xchem-fragalysis-2/maxwin/BulkDock/SCRATCH/511014/C8825-P106

>  <fragmenstein_runtime>  (1422) 
1.0013511180877686

>  <fragmenstein_outcome>  (1422) 
too distant

>  <fragmenstein_mode>  (1422) 
expansion

>  <fragmenstein_error>  (1422) 
DistanceError: hit1

$$$$
C8826-P106
     RDKit          2D

  0  0  0  0  0  0  0  0  0  0999 V2000
M  END
>  <compound_id>  (1423) 
8826

>  <target_id>  (1423) 
1

>  <reference_id>  (1423) 
106

>  <inspiration_ids>  (1423) 
[3, 106]

>  <energy_score>  (1423) 
nan

>  <distance_score>  (1423) 
nan

>  <path>  (1423) 
/opt/xchem-fragalysis-2/maxwin/BulkDock/SCRATCH/511014/C8826-P106/C8826-P106.minimised.mol

>  <scratch_subdir>  (1423) 
/opt/xchem-fragalysis-2/maxwin/BulkDock/SCRATCH/511014/C8826-P106

>  <fragmenstein_runtime>  (1423) 
0.7170557975769043

>  <fragmenstein_outcome>  (1423) 
too distant

>  <fragmenstein_mode>  (1423) 
expansion

>  <fragmenstein_error>  (1423) 
DistanceError: hit1

$$$$
C8827-P106
     RDKit          2D

  0  0  0  0  0  0  0  0  0  0999 V2000
M  END
>  <compound_id>  (1424) 
8827

>  <target_id>  (1424) 
1

>  <reference_id>  (1424) 
106

>  <inspiration_ids>  (1424) 
[3, 106]

>  <energy_score>  (1424) 
nan

>  <distance_score>  (1424) 
nan

>  <path>  (1424) 
/opt/xchem-fragalysis-2/maxwin/BulkDock/SCRATCH/511014/C8827-P106/C8827-P106.minimised.mol

>  <scratch_subdir>  (1424) 
/opt/xchem-fragalysis-2/maxwin/BulkDock/SCRATCH/511014/C8827-P106

>  <fragmenstein_runtime>  (1424) 
0.7621140480041504

>  <fragmenstein_outcome>  (1424) 
too distant

>  <fragmenstein_mode>  (1424) 
expansion

>  <fragmenstein_error>  (1424) 
DistanceError: hit1

$$$$
C8828-P106
     RDKit          2D

  0  0  0  0  0  0  0  0  0  0999 V2000
M  END
>  <compound_id>  (1425) 
8828

>  <target_id>  (1425) 
1

>  <reference_id>  (1425) 
106

>  <inspiration_ids>  (1425) 
[3, 106]

>  <energy_score>  (1425) 
nan

>  <distance_score>  (1425) 
nan

>  <path>  (1425) 
/opt/xchem-fragalysis-2/maxwin/BulkDock/SCRATCH/511014/C8828-P106/C8828-P106.minimised.mol

>  <scratch_subdir>  (1425) 
/opt/xchem-fragalysis-2/maxwin/BulkDock/SCRATCH/511014/C8828-P106

>  <fragmenstein_runtime>  (1425) 
1.2996656894683838

>  <fragmenstein_outcome>  (1425) 
too distant

>  <fragmenstein_mode>  (1425) 
expansion

>  <fragmenstein_error>  (1425) 
DistanceError: hit1

$$$$
C8829-P106
     RDKit          2D

  0  0  0  0  0  0  0  0  0  0999 V2000
M  END
>  <compound_id>  (1426) 
8829

>  <target_id>  (1426) 
1

>  <reference_id>  (1426) 
106

>  <inspiration_ids>  (1426) 
[3, 106]

>  <energy_score>  (1426) 
nan

>  <distance_score>  (1426) 
nan

>  <path>  (1426) 
/opt/xchem-fragalysis-2/maxwin/BulkDock/SCRATCH/511014/C8829-P106/C8829-P106.minimised.mol

>  <scratch_subdir>  (1426) 
/opt/xchem-fragalysis-2/maxwin/BulkDock/SCRATCH/511014/C8829-P106

>  <fragmenstein_runtime>  (1426) 
0.8978006839752197

>  <fragmenstein_outcome>  (1426) 
too distant

>  <fragmenstein_mode>  (1426) 
expansion

>  <fragmenstein_error>  (1426) 
DistanceError: hit1

$$$$
C8830-P106
     RDKit          2D

  0  0  0  0  0  0  0  0  0  0999 V2000
M  END
>  <compound_id>  (1427) 
8830

>  <target_id>  (1427) 
1

>  <reference_id>  (1427) 
106

>  <inspiration_ids>  (1427) 
[3, 106]

>  <energy_score>  (1427) 
nan

>  <distance_score>  (1427) 
nan

>  <path>  (1427) 
/opt/xchem-fragalysis-2/maxwin/BulkDock/SCRATCH/511014/C8830-P106/C8830-P106.minimised.mol

>  <scratch_subdir>  (1427) 
/opt/xchem-fragalysis-2/maxwin/BulkDock/SCRATCH/511014/C8830-P106

>  <fragmenstein_runtime>  (1427) 
0.3492133617401123

>  <fragmenstein_outcome>  (1427) 
too distant

>  <fragmenstein_mode>  (1427) 
expansion

>  <fragmenstein_error>  (1427) 
DistanceError: hit1

$$$$
C8831-P3
     RDKit          3D

 34 36  0  0  0  0  0  0  0  0999 V2000
   -3.1451  -14.0440   23.3626 C   0  0  0  0  0  0  0  0  0  0  0  0
   -2.8520  -15.0081   24.6249 O   0  0  0  0  0  0  0  0  0  0  0  0
   -3.8884  -15.6023   26.1011 C   0  0  0  0  0  0  0  0  0  0  0  0
   -4.9928  -17.4952   25.8821 C   0  0  0  0  0  0  0  0  0  0  0  0
   -4.7776  -18.2209   24.1295 C   0  0  0  0  0  0  0  0  0  0  0  0
   -6.1650  -17.4416   23.7735 C   0  0  0  0  0  0  0  0  0  0  0  0
   -6.8123  -18.4869   22.8697 O   0  0  0  0  0  0  0  0  0  0  0  0
   -6.5806  -17.0928   25.8692 C   0  0  0  0  0  0  0  0  0  0  0  0
   -6.3953  -17.9660   26.8998 N   0  0  0  0  0  0  0  0  0  0  0  0
   -7.5559  -19.3219   27.3692 C   0  0  0  0  0  0  0  0  0  0  0  0
   -9.4955  -19.0364   27.6767 C   0  0  0  0  0  0  0  0  0  0  0  0
  -10.5500  -19.7873   28.0271 C   0  0  0  0  0  0  0  0  0  0  0  0
  -10.2075  -21.0194   28.3861 N   0  0  0  0  0  0  0  0  0  0  0  0
  -10.9942  -21.9792   28.9581 C   0  0  0  0  0  0  0  0  0  0  0  0
  -10.2030  -22.4943   29.9396 C   0  0  0  0  0  0  0  0  0  0  0  0
   -8.9403  -21.9938   29.7876 N   0  0  0  0  0  0  0  0  0  0  0  0
   -8.8673  -21.2501   28.6220 C   0  0  0  0  0  0  0  0  0  0  0  0
   -7.5250  -20.5960   27.9084 N   0  0  0  0  0  0  0  0  0  0  0  0
   -4.1051  -14.1146   22.9145 H   0  0  0  0  0  0  0  0  0  0  0  0
   -2.5068  -14.1093   22.5054 H   0  0  0  0  0  0  0  0  0  0  0  0
   -2.8598  -12.9982   23.6366 H   0  0  0  0  0  0  0  0  0  0  0  0
   -2.8621  -15.7863   26.1460 H   0  0  0  0  0  0  0  0  0  0  0  0
   -4.1161  -14.5703   26.2436 H   0  0  0  0  0  0  0  0  0  0  0  0
   -4.7073  -18.5964   25.8874 H   0  0  0  0  0  0  0  0  0  0  0  0
   -4.7812  -19.3253   24.0503 H   0  0  0  0  0  0  0  0  0  0  0  0
   -3.8033  -18.0693   23.8205 H   0  0  0  0  0  0  0  0  0  0  0  0
   -6.3665  -16.7531   22.9426 H   0  0  0  0  0  0  0  0  0  0  0  0
   -7.5521  -18.0627   22.3883 H   0  0  0  0  0  0  0  0  0  0  0  0
   -7.4692  -16.5042   26.2949 H   0  0  0  0  0  0  0  0  0  0  0  0
   -6.1024  -16.1519   26.2803 H   0  0  0  0  0  0  0  0  0  0  0  0
   -9.3291  -17.9993   27.6134 H   0  0  0  0  0  0  0  0  0  0  0  0
  -11.5651  -19.4633   28.2006 H   0  0  0  0  0  0  0  0  0  0  0  0
  -12.0364  -22.0784   28.7169 H   0  0  0  0  0  0  0  0  0  0  0  0
  -10.4437  -23.1823   30.7385 H   0  0  0  0  0  0  0  0  0  0  0  0
  1  2  1  0
  2  3  1  0
  3  4  1  0
  4  5  1  0
  5  6  1  0
  6  7  1  0
  6  8  1  0
  8  9  1  0
  9 10  1  0
 10 11  1  0
 11 12  2  0
 12 13  1  0
 13 14  1  0
 14 15  2  0
 15 16  1  0
 16 17  2  0
 17 18  1  0
  9  4  1  0
 18 10  2  0
 17 13  1  0
  1 19  1  0
  1 20  1  0
  1 21  1  0
  3 22  1  0
  3 23  1  0
  4 24  1  0
  5 25  1  0
  5 26  1  0
  6 27  1  0
  7 28  1  0
  8 29  1  0
  8 30  1  0
 11 31  1  0
 12 32  1  0
 14 33  1  0
 15 34  1  0
M  END
>  <Energy>  (1428) 
959.45489471984945

>  <compound_id>  (1428) 
8831

>  <target_id>  (1428) 
1

>  <reference_id>  (1428) 
3

>  <inspiration_ids>  (1428) 
[3, 106]

>  <energy_score>  (1428) 
860.9020040639659

>  <distance_score>  (1428) 
11.847217266479596

>  <path>  (1428) 
/opt/xchem-fragalysis-2/maxwin/BulkDock/SCRATCH/511014/C8831-P3/C8831-P3.minimised.mol

>  <scratch_subdir>  (1428) 
/opt/xchem-fragalysis-2/maxwin/BulkDock/SCRATCH/511014/C8831-P3

>  <fragmenstein_runtime>  (1428) 
11.60772705078125

>  <fragmenstein_outcome>  (1428) 
too moved

>  <fragmenstein_mode>  (1428) 
expansion

>  <fragmenstein_error>  (1428) 


$$$$
C8831-P106
     RDKit          3D

 34 36  0  0  0  0  0  0  0  0999 V2000
   -7.1366  -11.3980   26.9611 C   0  0  0  0  0  0  0  0  0  0  0  0
   -8.4967  -11.2532   27.3361 O   0  0  0  0  0  0  0  0  0  0  0  0
   -9.0316  -12.4089   28.0444 C   0  0  0  0  0  0  0  0  0  0  0  0
  -10.5446  -12.2192   28.3629 C   0  0  0  0  0  0  0  0  0  0  0  0
  -11.3225  -11.8680   27.0769 C   0  0  0  0  0  0  0  0  0  0  0  0
  -12.6601  -12.5686   27.2273 C   0  0  0  0  0  0  0  0  0  0  0  0
  -13.2961  -12.8073   25.9828 O   0  0  0  0  0  0  0  0  0  0  0  0
  -12.2788  -13.8428   27.9636 C   0  0  0  0  0  0  0  0  0  0  0  0
  -11.2629  -13.4105   28.9172 N   0  0  0  0  0  0  0  0  0  0  0  0
  -11.2900  -13.6906   30.2885 C   0  0  0  0  0  0  0  0  0  0  0  0
  -12.4559  -14.4511   30.9098 C   0  0  0  0  0  0  0  0  0  0  0  0
  -12.3757  -14.7613   32.2090 C   0  0  0  0  0  0  0  0  0  0  0  0
  -11.2317  -14.4388   32.9055 N   0  0  0  0  0  0  0  0  0  0  0  0
  -10.8442  -14.7952   34.1708 C   0  0  0  0  0  0  0  0  0  0  0  0
   -9.5548  -14.3412   34.2856 C   0  0  0  0  0  0  0  0  0  0  0  0
   -9.1753  -13.6571   33.1588 N   0  0  0  0  0  0  0  0  0  0  0  0
  -10.1999  -13.7129   32.3272 C   0  0  0  0  0  0  0  0  0  0  0  0
  -10.2717  -13.2960   31.0229 N   0  0  0  0  0  0  0  0  0  0  0  0
   -6.8003  -10.3903   26.7789 H   0  0  0  0  0  0  0  0  0  0  0  0
   -6.5706  -11.8573   27.7692 H   0  0  0  0  0  0  0  0  0  0  0  0
   -7.0788  -11.9991   26.0513 H   0  0  0  0  0  0  0  0  0  0  0  0
   -8.8859  -13.2978   27.4200 H   0  0  0  0  0  0  0  0  0  0  0  0
   -8.4698  -12.5452   28.9749 H   0  0  0  0  0  0  0  0  0  0  0  0
  -10.6585  -11.3755   29.0564 H   0  0  0  0  0  0  0  0  0  0  0  0
  -10.7969  -12.1927   26.1768 H   0  0  0  0  0  0  0  0  0  0  0  0
  -11.4524  -10.7847   26.9718 H   0  0  0  0  0  0  0  0  0  0  0  0
  -13.3331  -11.9636   27.8464 H   0  0  0  0  0  0  0  0  0  0  0  0
  -12.6386  -13.1655   25.3620 H   0  0  0  0  0  0  0  0  0  0  0  0
  -13.1712  -14.3082   28.3826 H   0  0  0  0  0  0  0  0  0  0  0  0
  -11.8370  -14.5660   27.2782 H   0  0  0  0  0  0  0  0  0  0  0  0
  -13.3170  -14.7269   30.3252 H   0  0  0  0  0  0  0  0  0  0  0  0
  -13.1351  -15.3156   32.7396 H   0  0  0  0  0  0  0  0  0  0  0  0
  -11.4727  -15.3799   34.8247 H   0  0  0  0  0  0  0  0  0  0  0  0
   -8.8778  -14.4617   35.1208 H   0  0  0  0  0  0  0  0  0  0  0  0
  1  2  1  0
  2  3  1  0
  3  4  1  0
  4  5  1  0
  5  6  1  0
  6  7  1  0
  6  8  1  0
  8  9  1  0
  9 10  1  0
 10 11  1  0
 11 12  2  0
 12 13  1  0
 13 14  1  0
 14 15  2  0
 15 16  1  0
 16 17  2  0
 17 18  1  0
  9  4  1  0
 18 10  2  0
 17 13  1  0
  1 19  1  0
  1 20  1  0
  1 21  1  0
  3 22  1  0
  3 23  1  0
  4 24  1  0
  5 25  1  0
  5 26  1  0
  6 27  1  0
  7 28  1  0
  8 29  1  0
  8 30  1  0
 11 31  1  0
 12 32  1  0
 14 33  1  0
 15 34  1  0
M  END
>  <Energy>  (1429) 
53.27804523029392

>  <compound_id>  (1429) 
8831

>  <target_id>  (1429) 
1

>  <reference_id>  (1429) 
106

>  <inspiration_ids>  (1429) 
[3, 106]

>  <energy_score>  (1429) 
-45.27484542559819

>  <distance_score>  (1429) 
14.410493126559153

>  <path>  (1429) 
/opt/xchem-fragalysis-2/maxwin/BulkDock/SCRATCH/511014/C8831-P106/C8831-P106.minimised.mol

>  <scratch_subdir>  (1429) 
/opt/xchem-fragalysis-2/maxwin/BulkDock/SCRATCH/511014/C8831-P106

>  <fragmenstein_runtime>  (1429) 
21.07945966720581

>  <fragmenstein_outcome>  (1429) 
too moved

>  <fragmenstein_mode>  (1429) 
expansion

>  <fragmenstein_error>  (1429) 


$$$$
C8832-P106
     RDKit          2D

  0  0  0  0  0  0  0  0  0  0999 V2000
M  END
>  <compound_id>  (1430) 
8832

>  <target_id>  (1430) 
1

>  <reference_id>  (1430) 
106

>  <inspiration_ids>  (1430) 
[3, 106]

>  <energy_score>  (1430) 
nan

>  <distance_score>  (1430) 
nan

>  <path>  (1430) 
/opt/xchem-fragalysis-2/maxwin/BulkDock/SCRATCH/511014/C8832-P106/C8832-P106.minimised.mol

>  <scratch_subdir>  (1430) 
/opt/xchem-fragalysis-2/maxwin/BulkDock/SCRATCH/511014/C8832-P106

>  <fragmenstein_runtime>  (1430) 
0.7881529331207275

>  <fragmenstein_outcome>  (1430) 
too distant

>  <fragmenstein_mode>  (1430) 
expansion

>  <fragmenstein_error>  (1430) 
DistanceError: hit1

$$$$
C8833-P3
     RDKit          3D

 45 47  0  0  0  0  0  0  0  0999 V2000
   -2.8859  -17.0827   18.4588 C   0  0  0  0  0  0  0  0  0  0  0  0
   -4.2403  -18.3285   18.3438 S   0  0  0  0  0  0  0  0  0  0  0  0
   -5.1195  -18.3897   20.0657 C   0  0  0  0  0  0  0  0  0  0  0  0
   -5.5530  -16.9433   20.3672 C   0  0  0  0  0  0  0  0  0  0  0  0
   -6.4312  -19.5938   20.1513 C   0  0  0  0  0  0  0  0  0  0  0  0
   -7.1272  -19.9362   21.6325 C   0  0  0  0  0  0  0  0  0  0  0  0
   -6.6063  -19.2689   22.4975 O   0  0  0  0  0  0  0  0  0  0  0  0
   -8.3474  -20.9165   21.7071 N   0  0  0  0  0  0  0  0  0  0  0  0
   -9.3376  -21.2516   22.9112 C   0  0  0  0  0  0  0  0  0  0  0  0
  -10.5945  -20.3981   23.0314 C   0  0  0  0  0  0  0  0  0  0  0  0
  -11.4861  -21.0089   24.1495 C   0  0  0  0  0  0  0  0  0  0  0  0
  -10.6898  -22.0348   24.9541 N   0  0  0  0  0  0  0  0  0  0  0  0
  -11.5491  -22.7540   25.8538 C   0  0  0  0  0  0  0  0  0  0  0  0
  -12.1636  -23.7763   25.6994 O   0  0  0  0  0  0  0  0  0  0  0  0
  -11.6034  -22.1782   27.2867 C   0  0  0  0  0  0  0  0  0  0  0  0
  -11.7597  -20.7293   27.5682 C   0  0  0  0  0  0  0  0  0  0  0  0
  -11.4616  -20.3398   28.8185 C   0  0  0  0  0  0  0  0  0  0  0  0
  -11.1130  -21.2809   29.7701 N   0  0  0  0  0  0  0  0  0  0  0  0
  -10.7922  -21.1370   31.0922 C   0  0  0  0  0  0  0  0  0  0  0  0
  -10.4370  -22.3956   31.5108 C   0  0  0  0  0  0  0  0  0  0  0  0
  -10.6720  -23.3197   30.5218 N   0  0  0  0  0  0  0  0  0  0  0  0
  -11.0622  -22.6320   29.4681 C   0  0  0  0  0  0  0  0  0  0  0  0
  -11.3413  -23.0718   28.2113 N   0  0  0  0  0  0  0  0  0  0  0  0
  -10.1977  -22.3753   23.5913 C   0  0  0  0  0  0  0  0  0  0  0  0
   -3.3182  -16.0835   18.4660 H   0  0  0  0  0  0  0  0  0  0  0  0
   -2.2703  -17.1721   17.5592 H   0  0  0  0  0  0  0  0  0  0  0  0
   -2.2602  -17.3131   19.3193 H   0  0  0  0  0  0  0  0  0  0  0  0
   -4.3707  -18.7206   20.7937 H   0  0  0  0  0  0  0  0  0  0  0  0
   -5.9692  -16.8847   21.3779 H   0  0  0  0  0  0  0  0  0  0  0  0
   -6.3401  -16.6264   19.6743 H   0  0  0  0  0  0  0  0  0  0  0  0
   -4.7397  -16.2282   20.3081 H   0  0  0  0  0  0  0  0  0  0  0  0
   -6.0087  -20.5355   19.7846 H   0  0  0  0  0  0  0  0  0  0  0  0
   -7.2178  -19.2497   19.4740 H   0  0  0  0  0  0  0  0  0  0  0  0
   -8.5721  -21.2477   20.7720 H   0  0  0  0  0  0  0  0  0  0  0  0
   -8.5608  -21.2206   23.6483 H   0  0  0  0  0  0  0  0  0  0  0  0
  -11.1727  -20.4172   22.1015 H   0  0  0  0  0  0  0  0  0  0  0  0
  -10.3482  -19.3882   23.2773 H   0  0  0  0  0  0  0  0  0  0  0  0
  -12.4113  -21.4637   23.7532 H   0  0  0  0  0  0  0  0  0  0  0  0
  -11.8656  -20.2202   24.8006 H   0  0  0  0  0  0  0  0  0  0  0  0
  -12.0731  -20.0500   26.8014 H   0  0  0  0  0  0  0  0  0  0  0  0
  -11.5147  -19.3096   29.1422 H   0  0  0  0  0  0  0  0  0  0  0  0
  -10.8024  -20.1819   31.5977 H   0  0  0  0  0  0  0  0  0  0  0  0
  -10.0609  -22.6903   32.4833 H   0  0  0  0  0  0  0  0  0  0  0  0
   -9.4747  -23.1333   23.8921 H   0  0  0  0  0  0  0  0  0  0  0  0
  -11.0636  -22.6837   22.9998 H   0  0  0  0  0  0  0  0  0  0  0  0
  1  2  1  0
  2  3  1  0
  3  4  1  0
  3  5  1  0
  5  6  1  0
  6  7  2  0
  6  8  1  0
  8  9  1  0
  9 10  1  0
 10 11  1  0
 11 12  1  0
 12 13  1  0
 13 14  2  0
 13 15  1  0
 15 16  1  0
 16 17  2  0
 17 18  1  0
 18 19  1  0
 19 20  2  0
 20 21  1  0
 21 22  2  0
 22 23  1  0
 12 24  1  0
 24  9  1  0
 23 15  2  0
 22 18  1  0
  1 25  1  0
  1 26  1  0
  1 27  1  0
  3 28  1  0
  4 29  1  0
  4 30  1  0
  4 31  1  0
  5 32  1  0
  5 33  1  0
  8 34  1  0
  9 35  1  0
 10 36  1  0
 10 37  1  0
 11 38  1  0
 11 39  1  0
 16 40  1  0
 17 41  1  0
 19 42  1  0
 20 43  1  0
 24 44  1  0
 24 45  1  0
M  END
>  <Energy>  (1431) 
237.36701048933202

>  <compound_id>  (1431) 
8833

>  <target_id>  (1431) 
1

>  <reference_id>  (1431) 
3

>  <inspiration_ids>  (1431) 
[3, 106]

>  <energy_score>  (1431) 
126.00540626919519

>  <distance_score>  (1431) 
16.602949208158492

>  <path>  (1431) 
/opt/xchem-fragalysis-2/maxwin/BulkDock/SCRATCH/511014/C8833-P3/C8833-P3.minimised.mol

>  <scratch_subdir>  (1431) 
/opt/xchem-fragalysis-2/maxwin/BulkDock/SCRATCH/511014/C8833-P3

>  <fragmenstein_runtime>  (1431) 
18.770781755447388

>  <fragmenstein_outcome>  (1431) 
too moved

>  <fragmenstein_mode>  (1431) 
expansion

>  <fragmenstein_error>  (1431) 


$$$$
C8833-P106
     RDKit          3D

 45 47  0  0  0  0  0  0  0  0999 V2000
    1.8467  -11.7476   22.9433 C   0  0  0  0  0  0  0  0  0  0  0  0
    0.1301  -10.4561   21.8341 S   0  0  0  0  0  0  0  0  0  0  0  0
   -1.4806  -11.4973   20.6103 C   0  0  0  0  0  0  0  0  0  0  0  0
   -2.0488  -10.3836   19.6302 C   0  0  0  0  0  0  0  0  0  0  0  0
   -2.3014  -13.1450   20.1443 C   0  0  0  0  0  0  0  0  0  0  0  0
   -2.2582  -15.1519   19.9672 C   0  0  0  0  0  0  0  0  0  0  0  0
   -1.2315  -15.4891   19.5605 O   0  0  0  0  0  0  0  0  0  0  0  0
   -3.4440  -16.1588   20.4026 N   0  0  0  0  0  0  0  0  0  0  0  0
   -3.4809  -17.6056   20.4909 C   0  0  0  0  0  0  0  0  0  0  0  0
   -2.1140  -18.1778   20.2699 C   0  0  0  0  0  0  0  0  0  0  0  0
   -2.4301  -19.5789   20.6314 C   0  0  0  0  0  0  0  0  0  0  0  0
   -3.8607  -19.8782   20.9849 N   0  0  0  0  0  0  0  0  0  0  0  0
   -4.0625  -21.2576   21.0218 C   0  0  0  0  0  0  0  0  0  0  0  0
   -4.4067  -22.0160   20.1657 O   0  0  0  0  0  0  0  0  0  0  0  0
   -3.8570  -21.7142   22.5280 C   0  0  0  0  0  0  0  0  0  0  0  0
   -3.9632  -23.1766   22.8203 C   0  0  0  0  0  0  0  0  0  0  0  0
   -3.8451  -23.5195   24.1120 C   0  0  0  0  0  0  0  0  0  0  0  0
   -3.6765  -22.5426   25.0796 N   0  0  0  0  0  0  0  0  0  0  0  0
   -3.5222  -22.6466   26.4386 C   0  0  0  0  0  0  0  0  0  0  0  0
   -3.4272  -21.3553   26.8906 C   0  0  0  0  0  0  0  0  0  0  0  0
   -3.5138  -20.4675   25.8516 N   0  0  0  0  0  0  0  0  0  0  0  0
   -3.6044  -21.1941   24.7501 C   0  0  0  0  0  0  0  0  0  0  0  0
   -3.6717  -20.7927   23.4456 N   0  0  0  0  0  0  0  0  0  0  0  0
   -4.1220  -18.8402   19.8641 C   0  0  0  0  0  0  0  0  0  0  0  0
    1.7493  -12.0104   23.9886 H   0  0  0  0  0  0  0  0  0  0  0  0
    2.7063  -12.3227   22.4813 H   0  0  0  0  0  0  0  0  0  0  0  0
    2.7998  -11.1947   23.0344 H   0  0  0  0  0  0  0  0  0  0  0  0
   -2.2021  -11.2553   21.3695 H   0  0  0  0  0  0  0  0  0  0  0  0
   -1.8524  -10.6239   18.5820 H   0  0  0  0  0  0  0  0  0  0  0  0
   -1.7004   -9.3762   19.8770 H   0  0  0  0  0  0  0  0  0  0  0  0
   -3.1436  -10.3584   19.7151 H   0  0  0  0  0  0  0  0  0  0  0  0
   -3.3045  -12.7286   20.2599 H   0  0  0  0  0  0  0  0  0  0  0  0
   -2.1700  -12.9360   19.0556 H   0  0  0  0  0  0  0  0  0  0  0  0
   -4.2547  -15.6226   20.6400 H   0  0  0  0  0  0  0  0  0  0  0  0
   -3.7859  -17.6866   21.5481 H   0  0  0  0  0  0  0  0  0  0  0  0
   -1.2548  -17.8333   20.8433 H   0  0  0  0  0  0  0  0  0  0  0  0
   -1.8081  -18.0976   19.2169 H   0  0  0  0  0  0  0  0  0  0  0  0
   -2.0861  -20.2781   19.8505 H   0  0  0  0  0  0  0  0  0  0  0  0
   -1.8438  -19.8641   21.5170 H   0  0  0  0  0  0  0  0  0  0  0  0
   -4.1102  -23.8756   22.0083 H   0  0  0  0  0  0  0  0  0  0  0  0
   -3.8692  -24.5456   24.4323 H   0  0  0  0  0  0  0  0  0  0  0  0
   -3.4549  -23.5960   26.9411 H   0  0  0  0  0  0  0  0  0  0  0  0
   -3.2632  -21.0179   27.9035 H   0  0  0  0  0  0  0  0  0  0  0  0
   -5.2121  -18.7222   19.8365 H   0  0  0  0  0  0  0  0  0  0  0  0
   -3.8275  -19.1756   18.8564 H   0  0  0  0  0  0  0  0  0  0  0  0
  1  2  1  0
  2  3  1  0
  3  4  1  0
  3  5  1  0
  5  6  1  0
  6  7  2  0
  6  8  1  0
  8  9  1  0
  9 10  1  0
 10 11  1  0
 11 12  1  0
 12 13  1  0
 13 14  2  0
 13 15  1  0
 15 16  1  0
 16 17  2  0
 17 18  1  0
 18 19  1  0
 19 20  2  0
 20 21  1  0
 21 22  2  0
 22 23  1  0
 12 24  1  0
 24  9  1  0
 23 15  2  0
 22 18  1  0
  1 25  1  0
  1 26  1  0
  1 27  1  0
  3 28  1  0
  4 29  1  0
  4 30  1  0
  4 31  1  0
  5 32  1  0
  5 33  1  0
  8 34  1  0
  9 35  1  0
 10 36  1  0
 10 37  1  0
 11 38  1  0
 11 39  1  0
 16 40  1  0
 17 41  1  0
 19 42  1  0
 20 43  1  0
 24 44  1  0
 24 45  1  0
M  END
>  <Energy>  (1432) 
495.06058310598308

>  <compound_id>  (1432) 
8833

>  <target_id>  (1432) 
1

>  <reference_id>  (1432) 
106

>  <inspiration_ids>  (1432) 
[3, 106]

>  <energy_score>  (1432) 
383.69897888584205

>  <distance_score>  (1432) 
14.636474170413395

>  <path>  (1432) 
/opt/xchem-fragalysis-2/maxwin/BulkDock/SCRATCH/511014/C8833-P106/C8833-P106.minimised.mol

>  <scratch_subdir>  (1432) 
/opt/xchem-fragalysis-2/maxwin/BulkDock/SCRATCH/511014/C8833-P106

>  <fragmenstein_runtime>  (1432) 
32.18738007545471

>  <fragmenstein_outcome>  (1432) 
too moved

>  <fragmenstein_mode>  (1432) 
expansion

>  <fragmenstein_error>  (1432) 


$$$$
C8834-P3
     RDKit          3D

 44 47  0  0  0  0  0  0  0  0999 V2000
    6.6592   -8.0668   21.5265 C   0  0  0  0  0  0  0  0  0  0  0  0
    7.3557   -8.9173   20.5414 N   0  0  0  0  0  0  0  0  0  0  0  0
    7.2605  -10.3940   20.9058 C   0  0  0  0  0  0  0  0  0  0  0  0
    5.9065  -11.1950   20.8600 C   0  0  0  0  0  0  0  0  0  0  0  0
    4.6510  -10.6777   20.5510 C   0  0  0  0  0  0  0  0  0  0  0  0
    3.5262  -11.5157   20.4358 C   0  0  0  0  0  0  0  0  0  0  0  0
    3.6431  -12.9005   20.5658 C   0  0  0  0  0  0  0  0  0  0  0  0
    4.8652  -13.4969   20.8786 C   0  0  0  0  0  0  0  0  0  0  0  0
    5.0263  -14.8669   20.9561 N   0  0  0  0  0  0  0  0  0  0  0  0
    3.9630  -15.8245   20.6311 C   0  0  0  0  0  0  0  0  0  0  0  0
    4.6986  -17.1174   20.2793 C   0  0  0  0  0  0  0  0  0  0  0  0
    6.0064  -16.9992   21.0379 C   0  0  0  0  0  0  0  0  0  0  0  0
    6.3363  -15.5177   20.8984 C   0  0  0  0  0  0  0  0  0  0  0  0
    5.9549  -12.6075   21.0731 C   0  0  0  0  0  0  0  0  0  0  0  0
    8.5444   -8.3346   19.9725 C   0  0  0  0  0  0  0  0  0  0  0  0
    9.4439   -9.1197   19.0317 C   0  0  0  0  0  0  0  0  0  0  0  0
   10.5233   -8.5121   18.5130 C   0  0  0  0  0  0  0  0  0  0  0  0
   10.7839   -7.1980   18.8389 N   0  0  0  0  0  0  0  0  0  0  0  0
   11.7767   -6.3552   18.4123 C   0  0  0  0  0  0  0  0  0  0  0  0
   11.4964   -5.1466   19.0014 C   0  0  0  0  0  0  0  0  0  0  0  0
   10.3666   -5.2368   19.7742 N   0  0  0  0  0  0  0  0  0  0  0  0
    9.9594   -6.4888   19.6940 C   0  0  0  0  0  0  0  0  0  0  0  0
    8.8354   -7.0655   20.2332 N   0  0  0  0  0  0  0  0  0  0  0  0
    6.3187   -7.1394   21.0539 H   0  0  0  0  0  0  0  0  0  0  0  0
    7.3267   -7.8222   22.3603 H   0  0  0  0  0  0  0  0  0  0  0  0
    5.7790   -8.5555   21.9506 H   0  0  0  0  0  0  0  0  0  0  0  0
    7.9299  -10.9524   20.2454 H   0  0  0  0  0  0  0  0  0  0  0  0
    7.6576  -10.5031   21.9237 H   0  0  0  0  0  0  0  0  0  0  0  0
    4.5278   -9.6168   20.3497 H   0  0  0  0  0  0  0  0  0  0  0  0
    2.5602  -11.0840   20.1814 H   0  0  0  0  0  0  0  0  0  0  0  0
    2.7550  -13.4927   20.3741 H   0  0  0  0  0  0  0  0  0  0  0  0
    3.3458  -15.5207   19.7794 H   0  0  0  0  0  0  0  0  0  0  0  0
    3.3240  -15.9763   21.5071 H   0  0  0  0  0  0  0  0  0  0  0  0
    4.1271  -18.0097   20.5498 H   0  0  0  0  0  0  0  0  0  0  0  0
    4.8954  -17.1533   19.2008 H   0  0  0  0  0  0  0  0  0  0  0  0
    6.7924  -17.6440   20.6356 H   0  0  0  0  0  0  0  0  0  0  0  0
    5.8529  -17.2560   22.0930 H   0  0  0  0  0  0  0  0  0  0  0  0
    6.8134  -15.3225   19.9303 H   0  0  0  0  0  0  0  0  0  0  0  0
    7.0116  -15.2051   21.6996 H   0  0  0  0  0  0  0  0  0  0  0  0
    6.9257  -13.0241   21.3350 H   0  0  0  0  0  0  0  0  0  0  0  0
    9.1796  -10.1324   18.7665 H   0  0  0  0  0  0  0  0  0  0  0  0
   11.1980   -9.0007   17.8224 H   0  0  0  0  0  0  0  0  0  0  0  0
   12.5621   -6.6726   17.7428 H   0  0  0  0  0  0  0  0  0  0  0  0
   12.0387   -4.2136   18.9090 H   0  0  0  0  0  0  0  0  0  0  0  0
  1  2  1  0
  2  3  1  0
  3  4  1  0
  4  5  2  0
  5  6  1  0
  6  7  2  0
  7  8  1  0
  8  9  1  0
  9 10  1  0
 10 11  1  0
 11 12  1  0
 12 13  1  0
  8 14  2  0
  2 15  1  0
 15 16  1  0
 16 17  2  0
 17 18  1  0
 18 19  1  0
 19 20  2  0
 20 21  1  0
 21 22  2  0
 22 23  1  0
 14  4  1  0
 23 15  2  0
 13  9  1  0
 22 18  1  0
  1 24  1  0
  1 25  1  0
  1 26  1  0
  3 27  1  0
  3 28  1  0
  5 29  1  0
  6 30  1  0
  7 31  1  0
 10 32  1  0
 10 33  1  0
 11 34  1  0
 11 35  1  0
 12 36  1  0
 12 37  1  0
 13 38  1  0
 13 39  1  0
 14 40  1  0
 16 41  1  0
 17 42  1  0
 19 43  1  0
 20 44  1  0
M  END
>  <Energy>  (1433) 
30.081546056773835

>  <compound_id>  (1433) 
8834

>  <target_id>  (1433) 
1

>  <reference_id>  (1433) 
3

>  <inspiration_ids>  (1433) 
[3, 106]

>  <energy_score>  (1433) 
-18.836020508362196

>  <distance_score>  (1433) 
14.948362139845399

>  <path>  (1433) 
/opt/xchem-fragalysis-2/maxwin/BulkDock/SCRATCH/511014/C8834-P3/C8834-P3.minimised.mol

>  <scratch_subdir>  (1433) 
/opt/xchem-fragalysis-2/maxwin/BulkDock/SCRATCH/511014/C8834-P3

>  <fragmenstein_runtime>  (1433) 
20.71146559715271

>  <fragmenstein_outcome>  (1433) 
too moved

>  <fragmenstein_mode>  (1433) 
expansion

>  <fragmenstein_error>  (1433) 


$$$$
C8834-P106
     RDKit          3D

 44 47  0  0  0  0  0  0  0  0999 V2000
    0.2307   -5.0018   21.0532 C   0  0  0  0  0  0  0  0  0  0  0  0
    1.2514   -5.6559   21.8834 N   0  0  0  0  0  0  0  0  0  0  0  0
    0.8267   -7.0653   22.2766 C   0  0  0  0  0  0  0  0  0  0  0  0
   -0.6140   -7.3271   22.7992 C   0  0  0  0  0  0  0  0  0  0  0  0
   -1.0592   -6.8482   24.0384 C   0  0  0  0  0  0  0  0  0  0  0  0
   -2.3544   -7.1258   24.4952 C   0  0  0  0  0  0  0  0  0  0  0  0
   -3.2366   -7.8683   23.7044 C   0  0  0  0  0  0  0  0  0  0  0  0
   -2.8440   -8.4202   22.4793 C   0  0  0  0  0  0  0  0  0  0  0  0
   -3.6993   -9.1949   21.7115 N   0  0  0  0  0  0  0  0  0  0  0  0
   -5.1358   -9.2758   22.0034 C   0  0  0  0  0  0  0  0  0  0  0  0
   -5.7181  -10.0073   20.8002 C   0  0  0  0  0  0  0  0  0  0  0  0
   -4.8621   -9.4985   19.6572 C   0  0  0  0  0  0  0  0  0  0  0  0
   -3.4668   -9.3809   20.2697 C   0  0  0  0  0  0  0  0  0  0  0  0
   -1.5124   -8.1558   22.0724 C   0  0  0  0  0  0  0  0  0  0  0  0
    2.5776   -5.5693   21.3983 C   0  0  0  0  0  0  0  0  0  0  0  0
    3.7153   -5.4666   22.3978 C   0  0  0  0  0  0  0  0  0  0  0  0
    4.9628   -5.6008   21.9258 C   0  0  0  0  0  0  0  0  0  0  0  0
    5.1318   -5.8154   20.5729 N   0  0  0  0  0  0  0  0  0  0  0  0
    6.2458   -6.2013   19.8819 C   0  0  0  0  0  0  0  0  0  0  0  0
    5.8082   -6.3632   18.5901 C   0  0  0  0  0  0  0  0  0  0  0  0
    4.4895   -6.0556   18.4599 N   0  0  0  0  0  0  0  0  0  0  0  0
    4.0731   -5.7771   19.6761 C   0  0  0  0  0  0  0  0  0  0  0  0
    2.7939   -5.6069   20.1036 N   0  0  0  0  0  0  0  0  0  0  0  0
   -0.6928   -4.8536   21.6214 H   0  0  0  0  0  0  0  0  0  0  0  0
    0.0056   -5.5911   20.1574 H   0  0  0  0  0  0  0  0  0  0  0  0
    0.5713   -4.0077   20.7423 H   0  0  0  0  0  0  0  0  0  0  0  0
    0.9910   -7.7126   21.4045 H   0  0  0  0  0  0  0  0  0  0  0  0
    1.5215   -7.4114   23.0432 H   0  0  0  0  0  0  0  0  0  0  0  0
   -0.3939   -6.2394   24.6477 H   0  0  0  0  0  0  0  0  0  0  0  0
   -2.6919   -6.7112   25.4418 H   0  0  0  0  0  0  0  0  0  0  0  0
   -4.2607   -7.9486   24.0441 H   0  0  0  0  0  0  0  0  0  0  0  0
   -5.5759   -8.2734   22.0721 H   0  0  0  0  0  0  0  0  0  0  0  0
   -5.3361   -9.8281   22.9266 H   0  0  0  0  0  0  0  0  0  0  0  0
   -6.7821   -9.7971   20.6592 H   0  0  0  0  0  0  0  0  0  0  0  0
   -5.5972  -11.0902   20.9104 H   0  0  0  0  0  0  0  0  0  0  0  0
   -5.2141   -8.5086   19.3421 H   0  0  0  0  0  0  0  0  0  0  0  0
   -4.8805  -10.1572   18.7844 H   0  0  0  0  0  0  0  0  0  0  0  0
   -2.8923  -10.2999   20.1102 H   0  0  0  0  0  0  0  0  0  0  0  0
   -2.9413   -8.5431   19.7983 H   0  0  0  0  0  0  0  0  0  0  0  0
   -1.1396   -8.5925   21.1475 H   0  0  0  0  0  0  0  0  0  0  0  0
    3.4609   -5.3336   23.4402 H   0  0  0  0  0  0  0  0  0  0  0  0
    5.8412   -5.6000   22.5554 H   0  0  0  0  0  0  0  0  0  0  0  0
    7.1938   -6.3570   20.3731 H   0  0  0  0  0  0  0  0  0  0  0  0
    6.3557   -6.6616   17.7178 H   0  0  0  0  0  0  0  0  0  0  0  0
  1  2  1  0
  2  3  1  0
  3  4  1  0
  4  5  2  0
  5  6  1  0
  6  7  2  0
  7  8  1  0
  8  9  1  0
  9 10  1  0
 10 11  1  0
 11 12  1  0
 12 13  1  0
  8 14  2  0
  2 15  1  0
 15 16  1  0
 16 17  2  0
 17 18  1  0
 18 19  1  0
 19 20  2  0
 20 21  1  0
 21 22  2  0
 22 23  1  0
 14  4  1  0
 23 15  2  0
 13  9  1  0
 22 18  1  0
  1 24  1  0
  1 25  1  0
  1 26  1  0
  3 27  1  0
  3 28  1  0
  5 29  1  0
  6 30  1  0
  7 31  1  0
 10 32  1  0
 10 33  1  0
 11 34  1  0
 11 35  1  0
 12 36  1  0
 12 37  1  0
 13 38  1  0
 13 39  1  0
 14 40  1  0
 16 41  1  0
 17 42  1  0
 19 43  1  0
 20 44  1  0
M  END
>  <Energy>  (1434) 
26.781581349983867

>  <compound_id>  (1434) 
8834

>  <target_id>  (1434) 
1

>  <reference_id>  (1434) 
106

>  <inspiration_ids>  (1434) 
[3, 106]

>  <energy_score>  (1434) 
-22.135985215147798

>  <distance_score>  (1434) 
14.711472159378818

>  <path>  (1434) 
/opt/xchem-fragalysis-2/maxwin/BulkDock/SCRATCH/511014/C8834-P106/C8834-P106.minimised.mol

>  <scratch_subdir>  (1434) 
/opt/xchem-fragalysis-2/maxwin/BulkDock/SCRATCH/511014/C8834-P106

>  <fragmenstein_runtime>  (1434) 
35.220574617385864

>  <fragmenstein_outcome>  (1434) 
too moved

>  <fragmenstein_mode>  (1434) 
expansion

>  <fragmenstein_error>  (1434) 


$$$$
C8835-P3
     RDKit          3D

 41 43  0  0  0  0  0  0  0  0999 V2000
    1.1352  -10.5301   21.5785 C   0  0  0  0  0  0  0  0  0  0  0  0
    0.2183  -10.5645   20.1914 C   0  0  0  0  0  0  0  0  0  0  0  0
    2.0787  -10.6788   19.7564 C   0  0  0  0  0  0  0  0  0  0  0  0
   -0.9022   -9.5213   19.0654 C   0  0  0  0  0  0  0  0  0  0  0  0
   -0.7379  -12.2871   20.7754 O   0  0  0  0  0  0  0  0  0  0  0  0
   -1.8714  -13.7445   20.7621 C   0  0  0  0  0  0  0  0  0  0  0  0
   -2.1392  -14.3982   19.7443 O   0  0  0  0  0  0  0  0  0  0  0  0
   -2.8613  -14.3404   22.1530 C   0  0  0  0  0  0  0  0  0  0  0  0
   -2.6848  -15.6251   23.0787 C   0  0  0  0  0  0  0  0  0  0  0  0
   -4.0297  -15.7084   23.7840 C   0  0  0  0  0  0  0  0  0  0  0  0
   -4.8908  -15.9374   22.6304 N   0  0  0  0  0  0  0  0  0  0  0  0
   -5.1036  -17.3316   22.3889 C   0  0  0  0  0  0  0  0  0  0  0  0
   -6.2240  -17.8036   21.5022 C   0  0  0  0  0  0  0  0  0  0  0  0
   -6.4355  -19.1286   21.4357 C   0  0  0  0  0  0  0  0  0  0  0  0
   -5.6274  -19.9962   22.1453 N   0  0  0  0  0  0  0  0  0  0  0  0
   -5.6770  -21.3611   22.2822 C   0  0  0  0  0  0  0  0  0  0  0  0
   -4.6334  -21.6766   23.1203 C   0  0  0  0  0  0  0  0  0  0  0  0
   -3.9770  -20.5446   23.5299 N   0  0  0  0  0  0  0  0  0  0  0  0
   -4.5691  -19.5382   22.9107 C   0  0  0  0  0  0  0  0  0  0  0  0
   -4.3374  -18.2020   23.0267 N   0  0  0  0  0  0  0  0  0  0  0  0
   -4.2783  -15.0135   21.5499 C   0  0  0  0  0  0  0  0  0  0  0  0
    0.9210   -9.6072   22.0157 H   0  0  0  0  0  0  0  0  0  0  0  0
    2.0675  -11.0564   21.7126 H   0  0  0  0  0  0  0  0  0  0  0  0
    0.7872  -11.0635   22.4986 H   0  0  0  0  0  0  0  0  0  0  0  0
    2.5039  -11.4848   20.3369 H   0  0  0  0  0  0  0  0  0  0  0  0
    2.5546   -9.7353   19.6227 H   0  0  0  0  0  0  0  0  0  0  0  0
    2.4079  -11.2236   18.8552 H   0  0  0  0  0  0  0  0  0  0  0  0
   -1.8424   -9.9912   18.7294 H   0  0  0  0  0  0  0  0  0  0  0  0
   -0.4163   -9.1882   18.1543 H   0  0  0  0  0  0  0  0  0  0  0  0
   -1.3008   -8.5730   19.3974 H   0  0  0  0  0  0  0  0  0  0  0  0
   -3.1548  -13.5052   22.7964 H   0  0  0  0  0  0  0  0  0  0  0  0
   -1.9176  -15.6874   23.8504 H   0  0  0  0  0  0  0  0  0  0  0  0
   -2.5016  -16.5089   22.4479 H   0  0  0  0  0  0  0  0  0  0  0  0
   -4.0691  -16.4839   24.5563 H   0  0  0  0  0  0  0  0  0  0  0  0
   -4.2965  -14.7670   24.2796 H   0  0  0  0  0  0  0  0  0  0  0  0
   -6.8237  -17.0681   20.9858 H   0  0  0  0  0  0  0  0  0  0  0  0
   -7.2104  -19.5768   20.8306 H   0  0  0  0  0  0  0  0  0  0  0  0
   -6.4208  -21.9630   21.7786 H   0  0  0  0  0  0  0  0  0  0  0  0
   -4.3189  -22.6560   23.4537 H   0  0  0  0  0  0  0  0  0  0  0  0
   -4.0747  -15.5982   20.6469 H   0  0  0  0  0  0  0  0  0  0  0  0
   -4.9858  -14.2117   21.3176 H   0  0  0  0  0  0  0  0  0  0  0  0
  1  2  1  0
  2  3  1  0
  2  4  1  0
  2  5  1  0
  5  6  1  0
  6  7  2  0
  6  8  1  0
  8  9  1  0
  9 10  1  0
 10 11  1  0
 11 12  1  0
 12 13  1  0
 13 14  2  0
 14 15  1  0
 15 16  1  0
 16 17  2  0
 17 18  1  0
 18 19  2  0
 19 20  1  0
 11 21  1  0
 21  8  1  0
 20 12  2  0
 19 15  1  0
  1 22  1  0
  1 23  1  0
  1 24  1  0
  3 25  1  0
  3 26  1  0
  3 27  1  0
  4 28  1  0
  4 29  1  0
  4 30  1  0
  8 31  1  0
  9 32  1  0
  9 33  1  0
 10 34  1  0
 10 35  1  0
 13 36  1  0
 14 37  1  0
 16 38  1  0
 17 39  1  0
 21 40  1  0
 21 41  1  0
M  END
>  <Energy>  (1435) 
467.20263068403727

>  <compound_id>  (1435) 
8835

>  <target_id>  (1435) 
1

>  <reference_id>  (1435) 
3

>  <inspiration_ids>  (1435) 
[3, 106]

>  <energy_score>  (1435) 
428.15832322051523

>  <distance_score>  (1435) 
13.52095439740661

>  <path>  (1435) 
/opt/xchem-fragalysis-2/maxwin/BulkDock/SCRATCH/511014/C8835-P3/C8835-P3.minimised.mol

>  <scratch_subdir>  (1435) 
/opt/xchem-fragalysis-2/maxwin/BulkDock/SCRATCH/511014/C8835-P3

>  <fragmenstein_runtime>  (1435) 
31.114880800247192

>  <fragmenstein_outcome>  (1435) 
too moved

>  <fragmenstein_mode>  (1435) 
expansion

>  <fragmenstein_error>  (1435) 


$$$$
C8835-P106
     RDKit          3D

 41 43  0  0  0  0  0  0  0  0999 V2000
   -2.5233  -10.7282   19.7596 C   0  0  0  0  0  0  0  0  0  0  0  0
   -2.9263   -9.7907   20.9006 C   0  0  0  0  0  0  0  0  0  0  0  0
   -1.5781   -9.2367   21.4763 C   0  0  0  0  0  0  0  0  0  0  0  0
   -3.6976   -8.6044   20.3093 C   0  0  0  0  0  0  0  0  0  0  0  0
   -3.7728  -10.4192   22.0117 O   0  0  0  0  0  0  0  0  0  0  0  0
   -4.7567  -11.3814   21.8112 C   0  0  0  0  0  0  0  0  0  0  0  0
   -4.9640  -11.9036   20.7200 O   0  0  0  0  0  0  0  0  0  0  0  0
   -5.6594  -11.7831   23.0360 C   0  0  0  0  0  0  0  0  0  0  0  0
   -5.5135  -11.0229   24.3343 C   0  0  0  0  0  0  0  0  0  0  0  0
   -6.4834  -11.7579   25.2680 C   0  0  0  0  0  0  0  0  0  0  0  0
   -6.3578  -13.1831   24.9278 N   0  0  0  0  0  0  0  0  0  0  0  0
   -6.2331  -14.1156   25.9838 C   0  0  0  0  0  0  0  0  0  0  0  0
   -7.1761  -13.9363   27.1699 C   0  0  0  0  0  0  0  0  0  0  0  0
   -6.8948  -14.5869   28.3043 C   0  0  0  0  0  0  0  0  0  0  0  0
   -5.8519  -15.4844   28.3149 N   0  0  0  0  0  0  0  0  0  0  0  0
   -5.3495  -16.2400   29.3400 C   0  0  0  0  0  0  0  0  0  0  0  0
   -4.3170  -16.9498   28.7800 C   0  0  0  0  0  0  0  0  0  0  0  0
   -4.1901  -16.6613   27.4440 N   0  0  0  0  0  0  0  0  0  0  0  0
   -5.0938  -15.7355   27.1765 C   0  0  0  0  0  0  0  0  0  0  0  0
   -5.3133  -15.0538   25.9975 N   0  0  0  0  0  0  0  0  0  0  0  0
   -5.6903  -13.2662   23.5883 C   0  0  0  0  0  0  0  0  0  0  0  0
   -1.9545  -10.2015   18.9903 H   0  0  0  0  0  0  0  0  0  0  0  0
   -3.3958  -11.1287   19.2365 H   0  0  0  0  0  0  0  0  0  0  0  0
   -1.9616  -11.5874   20.1340 H   0  0  0  0  0  0  0  0  0  0  0  0
   -0.9861   -8.7281   20.7184 H   0  0  0  0  0  0  0  0  0  0  0  0
   -0.9324  -10.0458   21.8193 H   0  0  0  0  0  0  0  0  0  0  0  0
   -1.7658   -8.5781   22.3263 H   0  0  0  0  0  0  0  0  0  0  0  0
   -3.1803   -8.1328   19.4709 H   0  0  0  0  0  0  0  0  0  0  0  0
   -3.9233   -7.8595   21.0767 H   0  0  0  0  0  0  0  0  0  0  0  0
   -4.6710   -8.9459   19.9368 H   0  0  0  0  0  0  0  0  0  0  0  0
   -6.6752  -11.5646   22.6681 H   0  0  0  0  0  0  0  0  0  0  0  0
   -4.4862  -11.0916   24.7114 H   0  0  0  0  0  0  0  0  0  0  0  0
   -5.7663   -9.9629   24.2362 H   0  0  0  0  0  0  0  0  0  0  0  0
   -7.5151  -11.4346   25.0889 H   0  0  0  0  0  0  0  0  0  0  0  0
   -6.2238  -11.5389   26.3094 H   0  0  0  0  0  0  0  0  0  0  0  0
   -7.9965  -13.2390   27.0768 H   0  0  0  0  0  0  0  0  0  0  0  0
   -7.4506  -14.4461   29.2188 H   0  0  0  0  0  0  0  0  0  0  0  0
   -5.7506  -16.2166   30.3415 H   0  0  0  0  0  0  0  0  0  0  0  0
   -3.6605  -17.6604   29.2643 H   0  0  0  0  0  0  0  0  0  0  0  0
   -6.2622  -13.9167   22.9195 H   0  0  0  0  0  0  0  0  0  0  0  0
   -4.6890  -13.6759   23.7061 H   0  0  0  0  0  0  0  0  0  0  0  0
  1  2  1  0
  2  3  1  0
  2  4  1  0
  2  5  1  0
  5  6  1  0
  6  7  2  0
  6  8  1  0
  8  9  1  0
  9 10  1  0
 10 11  1  0
 11 12  1  0
 12 13  1  0
 13 14  2  0
 14 15  1  0
 15 16  1  0
 16 17  2  0
 17 18  1  0
 18 19  2  0
 19 20  1  0
 11 21  1  0
 21  8  1  0
 20 12  2  0
 19 15  1  0
  1 22  1  0
  1 23  1  0
  1 24  1  0
  3 25  1  0
  3 26  1  0
  3 27  1  0
  4 28  1  0
  4 29  1  0
  4 30  1  0
  8 31  1  0
  9 32  1  0
  9 33  1  0
 10 34  1  0
 10 35  1  0
 13 36  1  0
 14 37  1  0
 16 38  1  0
 17 39  1  0
 21 40  1  0
 21 41  1  0
M  END
>  <Energy>  (1436) 
15.193352232793524

>  <compound_id>  (1436) 
8835

>  <target_id>  (1436) 
1

>  <reference_id>  (1436) 
106

>  <inspiration_ids>  (1436) 
[3, 106]

>  <energy_score>  (1436) 
-23.85095523073079

>  <distance_score>  (1436) 
14.115745930535313

>  <path>  (1436) 
/opt/xchem-fragalysis-2/maxwin/BulkDock/SCRATCH/511014/C8835-P106/C8835-P106.minimised.mol

>  <scratch_subdir>  (1436) 
/opt/xchem-fragalysis-2/maxwin/BulkDock/SCRATCH/511014/C8835-P106

>  <fragmenstein_runtime>  (1436) 
37.19257307052612

>  <fragmenstein_outcome>  (1436) 
too moved

>  <fragmenstein_mode>  (1436) 
expansion

>  <fragmenstein_error>  (1436) 


$$$$
C8836-P106
     RDKit          2D

  0  0  0  0  0  0  0  0  0  0999 V2000
M  END
>  <compound_id>  (1437) 
8836

>  <target_id>  (1437) 
1

>  <reference_id>  (1437) 
106

>  <inspiration_ids>  (1437) 
[3, 106]

>  <energy_score>  (1437) 
nan

>  <distance_score>  (1437) 
nan

>  <path>  (1437) 
/opt/xchem-fragalysis-2/maxwin/BulkDock/SCRATCH/511014/C8836-P106/C8836-P106.minimised.mol

>  <scratch_subdir>  (1437) 
/opt/xchem-fragalysis-2/maxwin/BulkDock/SCRATCH/511014/C8836-P106

>  <fragmenstein_runtime>  (1437) 
0.8420474529266357

>  <fragmenstein_outcome>  (1437) 
too distant

>  <fragmenstein_mode>  (1437) 
expansion

>  <fragmenstein_error>  (1437) 
DistanceError: hit1

$$$$
C8838-P106
     RDKit          2D

  0  0  0  0  0  0  0  0  0  0999 V2000
M  END
>  <compound_id>  (1438) 
8838

>  <target_id>  (1438) 
1

>  <reference_id>  (1438) 
106

>  <inspiration_ids>  (1438) 
[3, 106]

>  <energy_score>  (1438) 
nan

>  <distance_score>  (1438) 
nan

>  <path>  (1438) 
/opt/xchem-fragalysis-2/maxwin/BulkDock/SCRATCH/511014/C8838-P106/C8838-P106.minimised.mol

>  <scratch_subdir>  (1438) 
/opt/xchem-fragalysis-2/maxwin/BulkDock/SCRATCH/511014/C8838-P106

>  <fragmenstein_runtime>  (1438) 
2.2645561695098877

>  <fragmenstein_outcome>  (1438) 
too distant

>  <fragmenstein_mode>  (1438) 
expansion

>  <fragmenstein_error>  (1438) 
DistanceError: hit1

$$$$
C8812-P106
     RDKit          2D

  0  0  0  0  0  0  0  0  0  0999 V2000
M  END
>  <compound_id>  (1439) 
8812

>  <target_id>  (1439) 
1

>  <reference_id>  (1439) 
106

>  <inspiration_ids>  (1439) 
[3, 106]

>  <energy_score>  (1439) 
nan

>  <distance_score>  (1439) 
nan

>  <path>  (1439) 
/opt/xchem-fragalysis-2/maxwin/BulkDock/SCRATCH/511014/C8812-P106/C8812-P106.minimised.mol

>  <scratch_subdir>  (1439) 
/opt/xchem-fragalysis-2/maxwin/BulkDock/SCRATCH/511014/C8812-P106

>  <fragmenstein_runtime>  (1439) 
1.6840932369232178

>  <fragmenstein_outcome>  (1439) 
too distant

>  <fragmenstein_mode>  (1439) 
expansion

>  <fragmenstein_error>  (1439) 
DistanceError: hit1

$$$$
C8839-P106
     RDKit          2D

  0  0  0  0  0  0  0  0  0  0999 V2000
M  END
>  <compound_id>  (1440) 
8839

>  <target_id>  (1440) 
1

>  <reference_id>  (1440) 
106

>  <inspiration_ids>  (1440) 
[3, 106]

>  <energy_score>  (1440) 
nan

>  <distance_score>  (1440) 
nan

>  <path>  (1440) 
/opt/xchem-fragalysis-2/maxwin/BulkDock/SCRATCH/511014/C8839-P106/C8839-P106.minimised.mol

>  <scratch_subdir>  (1440) 
/opt/xchem-fragalysis-2/maxwin/BulkDock/SCRATCH/511014/C8839-P106

>  <fragmenstein_runtime>  (1440) 
0.8370485305786133

>  <fragmenstein_outcome>  (1440) 
too distant

>  <fragmenstein_mode>  (1440) 
expansion

>  <fragmenstein_error>  (1440) 
DistanceError: hit1

$$$$
C8840-P106
     RDKit          2D

  0  0  0  0  0  0  0  0  0  0999 V2000
M  END
>  <compound_id>  (1441) 
8840

>  <target_id>  (1441) 
1

>  <reference_id>  (1441) 
106

>  <inspiration_ids>  (1441) 
[3, 106]

>  <energy_score>  (1441) 
nan

>  <distance_score>  (1441) 
nan

>  <path>  (1441) 
/opt/xchem-fragalysis-2/maxwin/BulkDock/SCRATCH/511014/C8840-P106/C8840-P106.minimised.mol

>  <scratch_subdir>  (1441) 
/opt/xchem-fragalysis-2/maxwin/BulkDock/SCRATCH/511014/C8840-P106

>  <fragmenstein_runtime>  (1441) 
0.40064167976379395

>  <fragmenstein_outcome>  (1441) 
too distant

>  <fragmenstein_mode>  (1441) 
expansion

>  <fragmenstein_error>  (1441) 
DistanceError: hit1

$$$$
C17818-P85
     RDKit          3D

 44 46  0  0  0  0  0  0  0  0999 V2000
   -6.5145  -14.1819   23.5460 C   0  0  0  0  0  0  0  0  0  0  0  0
   -7.2113  -15.0375   22.6502 O   0  0  0  0  0  0  0  0  0  0  0  0
   -6.4737  -16.2450   22.3982 C   0  0  0  0  0  0  0  0  0  0  0  0
   -7.2564  -17.1578   21.4192 C   0  0  0  0  0  0  0  0  0  0  0  0
   -7.2880  -16.4546   20.0669 C   0  0  0  0  0  0  0  0  0  0  0  0
   -6.4955  -16.7727   19.0440 C   0  0  0  0  0  0  0  0  0  0  0  0
   -5.5996  -17.9271   19.2727 C   0  0  0  0  0  0  0  0  0  0  0  0
   -6.3194  -19.0348   20.0411 C   0  0  0  0  0  0  0  0  0  0  0  0
   -6.6508  -18.5865   21.4107 N   0  0  0  0  0  0  0  0  0  0  0  0
   -7.4471  -19.6152   22.5627 S   0  0  0  0  0  0  0  0  0  0  0  0
   -8.7069  -19.9174   21.8897 O   0  0  0  0  0  0  0  0  0  0  0  0
   -7.5111  -18.6889   23.6784 O   0  0  0  0  0  0  0  0  0  0  0  0
   -6.4196  -21.5932   23.1658 C   0  0  0  0  0  0  0  0  0  0  0  0
   -6.7869  -23.4141   24.0100 C   0  0  0  0  0  0  0  0  0  0  0  0
   -7.7533  -23.4713   25.6692 N   0  0  0  0  0  0  0  0  0  0  0  0
   -7.5398  -22.7513   26.9637 C   0  0  0  0  0  0  0  0  0  0  0  0
   -8.4233  -22.9386   27.9135 N   0  0  0  0  0  0  0  0  0  0  0  0
   -9.4365  -23.7984   27.5696 C   0  0  0  0  0  0  0  0  0  0  0  0
  -10.6953  -24.0773   28.2317 C   0  0  0  0  0  0  0  0  0  0  0  0
  -11.6250  -24.9752   27.7649 C   0  0  0  0  0  0  0  0  0  0  0  0
  -11.4698  -25.3352   26.4737 C   0  0  0  0  0  0  0  0  0  0  0  0
  -10.3822  -24.7828   25.7763 C   0  0  0  0  0  0  0  0  0  0  0  0
   -9.1580  -24.2899   26.2833 C   0  0  0  0  0  0  0  0  0  0  0  0
   -6.3720  -14.6736   24.5131 H   0  0  0  0  0  0  0  0  0  0  0  0
   -5.5475  -13.8913   23.1243 H   0  0  0  0  0  0  0  0  0  0  0  0
   -7.1143  -13.2806   23.6978 H   0  0  0  0  0  0  0  0  0  0  0  0
   -6.2947  -16.7369   23.3561 H   0  0  0  0  0  0  0  0  0  0  0  0
   -5.4922  -15.9891   21.9777 H   0  0  0  0  0  0  0  0  0  0  0  0
   -8.3078  -17.2234   21.7292 H   0  0  0  0  0  0  0  0  0  0  0  0
   -7.9458  -15.5912   19.9929 H   0  0  0  0  0  0  0  0  0  0  0  0
   -6.4672  -16.1738   18.1423 H   0  0  0  0  0  0  0  0  0  0  0  0
   -5.1994  -18.3398   18.3516 H   0  0  0  0  0  0  0  0  0  0  0  0
   -4.7949  -17.5109   19.8745 H   0  0  0  0  0  0  0  0  0  0  0  0
   -5.6564  -19.8963   20.1064 H   0  0  0  0  0  0  0  0  0  0  0  0
   -7.2398  -19.2859   19.5104 H   0  0  0  0  0  0  0  0  0  0  0  0
   -5.6364  -21.6956   22.4181 H   0  0  0  0  0  0  0  0  0  0  0  0
   -7.5155  -21.7272   23.0320 H   0  0  0  0  0  0  0  0  0  0  0  0
   -5.9125  -23.1800   24.6744 H   0  0  0  0  0  0  0  0  0  0  0  0
   -6.2960  -24.2842   23.5573 H   0  0  0  0  0  0  0  0  0  0  0  0
   -6.5827  -22.2808   27.1855 H   0  0  0  0  0  0  0  0  0  0  0  0
  -11.0101  -23.5296   29.1149 H   0  0  0  0  0  0  0  0  0  0  0  0
  -12.5286  -25.1885   28.3237 H   0  0  0  0  0  0  0  0  0  0  0  0
  -12.3080  -25.7897   25.9571 H   0  0  0  0  0  0  0  0  0  0  0  0
  -10.6653  -24.3031   24.8678 H   0  0  0  0  0  0  0  0  0  0  0  0
  1  2  1  0
  2  3  1  0
  3  4  1  0
  4  5  1  0
  5  6  2  0
  6  7  1  0
  7  8  1  0
  8  9  1  0
  9 10  1  0
 10 11  2  0
 10 12  2  0
 10 13  1  0
 13 14  1  0
 14 15  1  0
 15 16  1  0
 16 17  2  0
 17 18  1  0
 18 19  2  0
 19 20  1  0
 20 21  2  0
 21 22  1  0
 22 23  2  0
  9  4  1  0
 23 15  1  0
 23 18  1  0
  1 24  1  0
  1 25  1  0
  1 26  1  0
  3 27  1  0
  3 28  1  0
  4 29  1  0
  5 30  1  0
  6 31  1  0
  7 32  1  0
  7 33  1  0
  8 34  1  0
  8 35  1  0
 13 36  1  0
 13 37  1  0
 14 38  1  0
 14 39  1  0
 16 40  1  0
 19 41  1  0
 20 42  1  0
 21 43  1  0
 22 44  1  0
M  END
>  <Energy>  (1442) 
374.35513838413647

>  <compound_id>  (1442) 
17818

>  <target_id>  (1442) 
1

>  <reference_id>  (1442) 
85

>  <inspiration_ids>  (1442) 
[85, 94]

>  <energy_score>  (1442) 
338.4460563734556

>  <distance_score>  (1442) 
10.828302614255776

>  <path>  (1442) 
/opt/xchem-fragalysis-2/maxwin/BulkDock/SCRATCH/511014/C17818-P85/C17818-P85.minimised.mol

>  <scratch_subdir>  (1442) 
/opt/xchem-fragalysis-2/maxwin/BulkDock/SCRATCH/511014/C17818-P85

>  <fragmenstein_runtime>  (1442) 
10.998100519180298

>  <fragmenstein_outcome>  (1442) 
too moved

>  <fragmenstein_mode>  (1442) 
expansion

>  <fragmenstein_error>  (1442) 


$$$$
C17818-P94
     RDKit          3D

 44 46  0  0  0  0  0  0  0  0999 V2000
   -2.6865  -13.9101   18.5114 C   0  0  0  0  0  0  0  0  0  0  0  0
   -2.4685  -15.2725   18.1691 O   0  0  0  0  0  0  0  0  0  0  0  0
   -2.2465  -16.0737   19.3379 C   0  0  0  0  0  0  0  0  0  0  0  0
   -2.1135  -17.6001   19.0102 C   0  0  0  0  0  0  0  0  0  0  0  0
   -0.7098  -17.8449   18.1263 C   0  0  0  0  0  0  0  0  0  0  0  0
   -0.5367  -18.3885   16.8646 C   0  0  0  0  0  0  0  0  0  0  0  0
   -2.0445  -18.5341   15.6940 C   0  0  0  0  0  0  0  0  0  0  0  0
   -3.5809  -18.1175   16.8543 C   0  0  0  0  0  0  0  0  0  0  0  0
   -3.4570  -18.2115   18.3902 N   0  0  0  0  0  0  0  0  0  0  0  0
   -4.7807  -18.5078   19.4230 S   0  0  0  0  0  0  0  0  0  0  0  0
   -3.9248  -19.6202   19.8330 O   0  0  0  0  0  0  0  0  0  0  0  0
   -4.9552  -17.1570   19.9343 O   0  0  0  0  0  0  0  0  0  0  0  0
   -6.2719  -19.4445   20.6379 C   0  0  0  0  0  0  0  0  0  0  0  0
   -6.6719  -19.7286   22.5038 C   0  0  0  0  0  0  0  0  0  0  0  0
   -6.3633  -21.2345   23.4826 N   0  0  0  0  0  0  0  0  0  0  0  0
   -5.5479  -21.0152   24.6951 C   0  0  0  0  0  0  0  0  0  0  0  0
   -5.6356  -21.9212   25.6360 N   0  0  0  0  0  0  0  0  0  0  0  0
   -6.6569  -22.7899   25.3435 C   0  0  0  0  0  0  0  0  0  0  0  0
   -7.6182  -23.1456   26.4910 C   0  0  0  0  0  0  0  0  0  0  0  0
   -9.1734  -24.0097   26.3739 C   0  0  0  0  0  0  0  0  0  0  0  0
   -9.6688  -24.2005   24.8153 C   0  0  0  0  0  0  0  0  0  0  0  0
   -8.6286  -23.4861   23.6127 C   0  0  0  0  0  0  0  0  0  0  0  0
   -7.1463  -22.6922   23.9194 C   0  0  0  0  0  0  0  0  0  0  0  0
   -2.8249  -13.3427   17.5872 H   0  0  0  0  0  0  0  0  0  0  0  0
   -3.5891  -13.8077   19.1215 H   0  0  0  0  0  0  0  0  0  0  0  0
   -1.8211  -13.5046   19.0443 H   0  0  0  0  0  0  0  0  0  0  0  0
   -3.0613  -15.8889   20.0366 H   0  0  0  0  0  0  0  0  0  0  0  0
   -1.3115  -15.7314   19.7974 H   0  0  0  0  0  0  0  0  0  0  0  0
   -1.9672  -18.0843   19.9707 H   0  0  0  0  0  0  0  0  0  0  0  0
    0.1865  -17.4994   18.6454 H   0  0  0  0  0  0  0  0  0  0  0  0
    0.4460  -18.5359   16.4155 H   0  0  0  0  0  0  0  0  0  0  0  0
   -1.8252  -19.0500   14.7736 H   0  0  0  0  0  0  0  0  0  0  0  0
   -2.3727  -17.7938   14.9136 H   0  0  0  0  0  0  0  0  0  0  0  0
   -4.4193  -18.7603   16.7814 H   0  0  0  0  0  0  0  0  0  0  0  0
   -3.9824  -17.1187   16.6063 H   0  0  0  0  0  0  0  0  0  0  0  0
   -7.1948  -19.0470   20.2030 H   0  0  0  0  0  0  0  0  0  0  0  0
   -5.9712  -20.4019   20.2592 H   0  0  0  0  0  0  0  0  0  0  0  0
   -7.7659  -19.7733   22.5341 H   0  0  0  0  0  0  0  0  0  0  0  0
   -6.3199  -18.9376   23.1763 H   0  0  0  0  0  0  0  0  0  0  0  0
   -5.0852  -20.0575   24.9071 H   0  0  0  0  0  0  0  0  0  0  0  0
   -7.3470  -22.7237   27.4599 H   0  0  0  0  0  0  0  0  0  0  0  0
   -9.8168  -24.1487   27.2393 H   0  0  0  0  0  0  0  0  0  0  0  0
  -10.7352  -24.3692   24.7089 H   0  0  0  0  0  0  0  0  0  0  0  0
   -9.2372  -23.0402   22.8236 H   0  0  0  0  0  0  0  0  0  0  0  0
  1  2  1  0
  2  3  1  0
  3  4  1  0
  4  5  1  0
  5  6  2  0
  6  7  1  0
  7  8  1  0
  8  9  1  0
  9 10  1  0
 10 11  2  0
 10 12  2  0
 10 13  1  0
 13 14  1  0
 14 15  1  0
 15 16  1  0
 16 17  2  0
 17 18  1  0
 18 19  2  0
 19 20  1  0
 20 21  2  0
 21 22  1  0
 22 23  2  0
  9  4  1  0
 23 15  1  0
 23 18  1  0
  1 24  1  0
  1 25  1  0
  1 26  1  0
  3 27  1  0
  3 28  1  0
  4 29  1  0
  5 30  1  0
  6 31  1  0
  7 32  1  0
  7 33  1  0
  8 34  1  0
  8 35  1  0
 13 36  1  0
 13 37  1  0
 14 38  1  0
 14 39  1  0
 16 40  1  0
 19 41  1  0
 20 42  1  0
 21 43  1  0
 22 44  1  0
M  END
>  <Energy>  (1443) 
597.90452868842124

>  <compound_id>  (1443) 
17818

>  <target_id>  (1443) 
1

>  <reference_id>  (1443) 
94

>  <inspiration_ids>  (1443) 
[85, 94]

>  <energy_score>  (1443) 
561.9954466777358

>  <distance_score>  (1443) 
9.743589164415924

>  <path>  (1443) 
/opt/xchem-fragalysis-2/maxwin/BulkDock/SCRATCH/511014/C17818-P94/C17818-P94.minimised.mol

>  <scratch_subdir>  (1443) 
/opt/xchem-fragalysis-2/maxwin/BulkDock/SCRATCH/511014/C17818-P94

>  <fragmenstein_runtime>  (1443) 
19.00761342048645

>  <fragmenstein_outcome>  (1443) 
too moved

>  <fragmenstein_mode>  (1443) 
expansion

>  <fragmenstein_error>  (1443) 


$$$$
C17819-P85
     RDKit          3D

 46 48  0  0  0  0  0  0  0  0999 V2000
    4.0081  -20.6049   16.2691 C   0  0  0  0  0  0  0  0  0  0  0  0
    3.1050  -21.0218   15.2554 O   0  0  0  0  0  0  0  0  0  0  0  0
    2.2374  -19.9287   14.8483 C   0  0  0  0  0  0  0  0  0  0  0  0
    1.2322  -20.4366   13.6650 C   0  0  0  0  0  0  0  0  0  0  0  0
    2.2073  -20.8090   12.4702 C   0  0  0  0  0  0  0  0  0  0  0  0
    2.2448  -20.1858   11.2910 C   0  0  0  0  0  0  0  0  0  0  0  0
    1.3446  -19.0119   11.1973 C   0  0  0  0  0  0  0  0  0  0  0  0
    0.7888  -18.6712   12.5996 C   0  0  0  0  0  0  0  0  0  0  0  0
   -0.3568  -19.4909   13.4326 N   0  0  0  0  0  0  0  0  0  0  0  0
   -1.4940  -18.6017   14.6677 C   0  0  0  0  0  0  0  0  0  0  0  0
   -1.0168  -18.6137   15.7228 O   0  0  0  0  0  0  0  0  0  0  0  0
   -3.2873  -17.7515   14.7979 C   0  0  0  0  0  0  0  0  0  0  0  0
   -4.0973  -17.8562   16.6653 C   0  0  0  0  0  0  0  0  0  0  0  0
   -5.2811  -18.8325   17.9639 C   0  0  0  0  0  0  0  0  0  0  0  0
   -7.0123  -19.1619   18.4959 N   0  0  0  0  0  0  0  0  0  0  0  0
   -6.9761  -19.2096   19.9269 C   0  0  0  0  0  0  0  0  0  0  0  0
   -7.9715  -19.8525   20.4868 N   0  0  0  0  0  0  0  0  0  0  0  0
   -9.0522  -20.4994   19.4759 C   0  0  0  0  0  0  0  0  0  0  0  0
  -10.2456  -21.3366   19.7457 C   0  0  0  0  0  0  0  0  0  0  0  0
  -11.1769  -21.6003   18.7775 C   0  0  0  0  0  0  0  0  0  0  0  0
  -10.9499  -20.9722   17.5916 C   0  0  0  0  0  0  0  0  0  0  0  0
   -9.7519  -20.2183   17.3877 C   0  0  0  0  0  0  0  0  0  0  0  0
   -8.3879  -20.2373   18.1117 C   0  0  0  0  0  0  0  0  0  0  0  0
    3.4623  -20.2807   17.1605 H   0  0  0  0  0  0  0  0  0  0  0  0
    4.6499  -19.7970   15.9046 H   0  0  0  0  0  0  0  0  0  0  0  0
    4.6394  -21.4559   16.5384 H   0  0  0  0  0  0  0  0  0  0  0  0
    1.7157  -19.6132   15.7458 H   0  0  0  0  0  0  0  0  0  0  0  0
    2.8849  -19.1088   14.5216 H   0  0  0  0  0  0  0  0  0  0  0  0
    0.9702  -21.3783   14.1346 H   0  0  0  0  0  0  0  0  0  0  0  0
    2.8547  -21.6647   12.6504 H   0  0  0  0  0  0  0  0  0  0  0  0
    2.8861  -20.4906   10.4756 H   0  0  0  0  0  0  0  0  0  0  0  0
    0.6759  -19.2608   10.4029 H   0  0  0  0  0  0  0  0  0  0  0  0
    1.9042  -18.1424   10.8246 H   0  0  0  0  0  0  0  0  0  0  0  0
    1.0415  -18.3486   13.6111 H   0  0  0  0  0  0  0  0  0  0  0  0
    1.8625  -18.7570   12.8389 H   0  0  0  0  0  0  0  0  0  0  0  0
   -3.9985  -17.8137   13.9582 H   0  0  0  0  0  0  0  0  0  0  0  0
   -3.2065  -16.6640   14.8035 H   0  0  0  0  0  0  0  0  0  0  0  0
   -4.4317  -16.8049   16.7700 H   0  0  0  0  0  0  0  0  0  0  0  0
   -3.2115  -17.8393   17.2296 H   0  0  0  0  0  0  0  0  0  0  0  0
   -4.9218  -19.8130   18.1282 H   0  0  0  0  0  0  0  0  0  0  0  0
   -5.1284  -18.1735   18.8233 H   0  0  0  0  0  0  0  0  0  0  0  0
   -6.1749  -18.7413   20.4820 H   0  0  0  0  0  0  0  0  0  0  0  0
  -10.4323  -21.6553   20.7685 H   0  0  0  0  0  0  0  0  0  0  0  0
  -12.0955  -22.1319   18.9896 H   0  0  0  0  0  0  0  0  0  0  0  0
  -11.7595  -20.8833   16.8687 H   0  0  0  0  0  0  0  0  0  0  0  0
  -10.0755  -19.3082   16.8547 H   0  0  0  0  0  0  0  0  0  0  0  0
  1  2  1  0
  2  3  1  0
  3  4  1  0
  4  5  1  0
  5  6  2  0
  6  7  1  0
  7  8  1  0
  8  9  1  0
  9 10  1  0
 10 11  2  0
 10 12  1  0
 12 13  1  0
 13 14  1  0
 14 15  1  0
 15 16  1  0
 16 17  2  0
 17 18  1  0
 18 19  2  0
 19 20  1  0
 20 21  2  0
 21 22  1  0
 22 23  2  0
  9  4  1  0
 23 15  1  0
 23 18  1  0
  1 24  1  0
  1 25  1  0
  1 26  1  0
  3 27  1  0
  3 28  1  0
  4 29  1  0
  5 30  1  0
  6 31  1  0
  7 32  1  0
  7 33  1  0
  8 34  1  0
  8 35  1  0
 12 36  1  0
 12 37  1  0
 13 38  1  0
 13 39  1  0
 14 40  1  0
 14 41  1  0
 16 42  1  0
 19 43  1  0
 20 44  1  0
 21 45  1  0
 22 46  1  0
M  END
>  <Energy>  (1444) 
845.71288480461703

>  <compound_id>  (1444) 
17819

>  <target_id>  (1444) 
1

>  <reference_id>  (1444) 
85

>  <inspiration_ids>  (1444) 
[85, 94]

>  <energy_score>  (1444) 
771.9996140389211

>  <distance_score>  (1444) 
11.750684740617087

>  <path>  (1444) 
/opt/xchem-fragalysis-2/maxwin/BulkDock/SCRATCH/511014/C17819-P85/C17819-P85.minimised.mol

>  <scratch_subdir>  (1444) 
/opt/xchem-fragalysis-2/maxwin/BulkDock/SCRATCH/511014/C17819-P85

>  <fragmenstein_runtime>  (1444) 
11.231213569641113

>  <fragmenstein_outcome>  (1444) 
too moved

>  <fragmenstein_mode>  (1444) 
expansion

>  <fragmenstein_error>  (1444) 


$$$$
C17819-P94
     RDKit          3D

 46 48  0  0  0  0  0  0  0  0999 V2000
    2.3782  -22.9382   17.6301 C   0  0  0  0  0  0  0  0  0  0  0  0
    1.4027  -23.2139   18.6361 O   0  0  0  0  0  0  0  0  0  0  0  0
    1.6743  -22.4798   19.8797 C   0  0  0  0  0  0  0  0  0  0  0  0
    0.5131  -22.8959   21.4102 C   0  0  0  0  0  0  0  0  0  0  0  0
    1.0861  -24.5101   20.9793 C   0  0  0  0  0  0  0  0  0  0  0  0
    1.8501  -25.1909   21.8235 C   0  0  0  0  0  0  0  0  0  0  0  0
    1.7910  -24.5715   23.1549 C   0  0  0  0  0  0  0  0  0  0  0  0
    0.5187  -23.4368   23.2663 C   0  0  0  0  0  0  0  0  0  0  0  0
   -0.0101  -22.0326   23.2079 N   0  0  0  0  0  0  0  0  0  0  0  0
   -1.7180  -21.2946   23.7522 C   0  0  0  0  0  0  0  0  0  0  0  0
   -2.4226  -21.2972   22.8884 O   0  0  0  0  0  0  0  0  0  0  0  0
   -2.8090  -20.7780   25.4721 C   0  0  0  0  0  0  0  0  0  0  0  0
   -4.5457  -21.5770   26.4344 C   0  0  0  0  0  0  0  0  0  0  0  0
   -6.5522  -22.1410   26.8016 C   0  0  0  0  0  0  0  0  0  0  0  0
   -8.1281  -22.7386   27.8105 N   0  0  0  0  0  0  0  0  0  0  0  0
   -9.7549  -22.1974   28.1838 C   0  0  0  0  0  0  0  0  0  0  0  0
  -10.7500  -22.7622   27.5243 N   0  0  0  0  0  0  0  0  0  0  0  0
  -10.3623  -24.0107   27.3990 C   0  0  0  0  0  0  0  0  0  0  0  0
  -11.2636  -25.0739   27.2247 C   0  0  0  0  0  0  0  0  0  0  0  0
  -11.1327  -26.1470   28.0886 C   0  0  0  0  0  0  0  0  0  0  0  0
  -10.1299  -26.1148   29.0383 C   0  0  0  0  0  0  0  0  0  0  0  0
   -9.1292  -25.1344   29.0031 C   0  0  0  0  0  0  0  0  0  0  0  0
   -9.1084  -24.1152   28.0056 C   0  0  0  0  0  0  0  0  0  0  0  0
    2.0564  -23.4202   16.7033 H   0  0  0  0  0  0  0  0  0  0  0  0
    2.4660  -21.8620   17.4561 H   0  0  0  0  0  0  0  0  0  0  0  0
    3.3481  -23.3527   17.9202 H   0  0  0  0  0  0  0  0  0  0  0  0
    1.8045  -21.4116   19.7147 H   0  0  0  0  0  0  0  0  0  0  0  0
    2.6895  -22.8712   20.0173 H   0  0  0  0  0  0  0  0  0  0  0  0
   -0.2767  -22.6287   20.7696 H   0  0  0  0  0  0  0  0  0  0  0  0
    0.8315  -24.8915   19.9932 H   0  0  0  0  0  0  0  0  0  0  0  0
    2.2891  -26.1573   21.6168 H   0  0  0  0  0  0  0  0  0  0  0  0
    2.7654  -24.2178   23.5077 H   0  0  0  0  0  0  0  0  0  0  0  0
    1.5178  -25.3778   23.8538 H   0  0  0  0  0  0  0  0  0  0  0  0
    1.3295  -22.8615   23.7428 H   0  0  0  0  0  0  0  0  0  0  0  0
    0.3650  -23.7164   24.3253 H   0  0  0  0  0  0  0  0  0  0  0  0
   -2.2341  -21.1562   26.3184 H   0  0  0  0  0  0  0  0  0  0  0  0
   -2.9264  -19.7080   25.6039 H   0  0  0  0  0  0  0  0  0  0  0  0
   -4.4849  -20.8883   27.2934 H   0  0  0  0  0  0  0  0  0  0  0  0
   -4.0976  -22.5168   26.7914 H   0  0  0  0  0  0  0  0  0  0  0  0
   -6.8101  -22.7501   25.9365 H   0  0  0  0  0  0  0  0  0  0  0  0
   -6.9547  -21.1357   26.8997 H   0  0  0  0  0  0  0  0  0  0  0  0
  -10.0258  -21.3012   28.7160 H   0  0  0  0  0  0  0  0  0  0  0  0
  -12.2041  -24.9062   26.7076 H   0  0  0  0  0  0  0  0  0  0  0  0
  -11.9003  -26.9119   28.1297 H   0  0  0  0  0  0  0  0  0  0  0  0
  -10.1234  -26.8353   29.8539 H   0  0  0  0  0  0  0  0  0  0  0  0
   -8.4657  -25.1112   29.8455 H   0  0  0  0  0  0  0  0  0  0  0  0
  1  2  1  0
  2  3  1  0
  3  4  1  0
  4  5  1  0
  5  6  2  0
  6  7  1  0
  7  8  1  0
  8  9  1  0
  9 10  1  0
 10 11  2  0
 10 12  1  0
 12 13  1  0
 13 14  1  0
 14 15  1  0
 15 16  1  0
 16 17  2  0
 17 18  1  0
 18 19  2  0
 19 20  1  0
 20 21  2  0
 21 22  1  0
 22 23  2  0
  9  4  1  0
 23 15  1  0
 23 18  1  0
  1 24  1  0
  1 25  1  0
  1 26  1  0
  3 27  1  0
  3 28  1  0
  4 29  1  0
  5 30  1  0
  6 31  1  0
  7 32  1  0
  7 33  1  0
  8 34  1  0
  8 35  1  0
 12 36  1  0
 12 37  1  0
 13 38  1  0
 13 39  1  0
 14 40  1  0
 14 41  1  0
 16 42  1  0
 19 43  1  0
 20 44  1  0
 21 45  1  0
 22 46  1  0
M  END
>  <Energy>  (1445) 
1265.3437068531853

>  <compound_id>  (1445) 
17819

>  <target_id>  (1445) 
1

>  <reference_id>  (1445) 
94

>  <inspiration_ids>  (1445) 
[85, 94]

>  <energy_score>  (1445) 
1191.6304360874956

>  <distance_score>  (1445) 
10.663779019999241

>  <path>  (1445) 
/opt/xchem-fragalysis-2/maxwin/BulkDock/SCRATCH/511014/C17819-P94/C17819-P94.minimised.mol

>  <scratch_subdir>  (1445) 
/opt/xchem-fragalysis-2/maxwin/BulkDock/SCRATCH/511014/C17819-P94

>  <fragmenstein_runtime>  (1445) 
20.800705194473267

>  <fragmenstein_outcome>  (1445) 
too moved

>  <fragmenstein_mode>  (1445) 
expansion

>  <fragmenstein_error>  (1445) 


$$$$
C17819-P85
     RDKit          3D

 46 48  0  0  0  0  0  0  0  0999 V2000
    4.0081  -20.6049   16.2691 C   0  0  0  0  0  0  0  0  0  0  0  0
    3.1050  -21.0218   15.2554 O   0  0  0  0  0  0  0  0  0  0  0  0
    2.2374  -19.9287   14.8483 C   0  0  0  0  0  0  0  0  0  0  0  0
    1.2322  -20.4366   13.6650 C   0  0  0  0  0  0  0  0  0  0  0  0
    2.2073  -20.8090   12.4702 C   0  0  0  0  0  0  0  0  0  0  0  0
    2.2448  -20.1858   11.2910 C   0  0  0  0  0  0  0  0  0  0  0  0
    1.3446  -19.0119   11.1973 C   0  0  0  0  0  0  0  0  0  0  0  0
    0.7888  -18.6712   12.5996 C   0  0  0  0  0  0  0  0  0  0  0  0
   -0.3568  -19.4909   13.4326 N   0  0  0  0  0  0  0  0  0  0  0  0
   -1.4940  -18.6017   14.6677 C   0  0  0  0  0  0  0  0  0  0  0  0
   -1.0168  -18.6137   15.7228 O   0  0  0  0  0  0  0  0  0  0  0  0
   -3.2873  -17.7515   14.7979 C   0  0  0  0  0  0  0  0  0  0  0  0
   -4.0973  -17.8562   16.6653 C   0  0  0  0  0  0  0  0  0  0  0  0
   -5.2811  -18.8325   17.9639 C   0  0  0  0  0  0  0  0  0  0  0  0
   -7.0123  -19.1619   18.4959 N   0  0  0  0  0  0  0  0  0  0  0  0
   -6.9761  -19.2096   19.9269 C   0  0  0  0  0  0  0  0  0  0  0  0
   -7.9715  -19.8525   20.4868 N   0  0  0  0  0  0  0  0  0  0  0  0
   -9.0522  -20.4994   19.4759 C   0  0  0  0  0  0  0  0  0  0  0  0
  -10.2456  -21.3366   19.7457 C   0  0  0  0  0  0  0  0  0  0  0  0
  -11.1769  -21.6003   18.7775 C   0  0  0  0  0  0  0  0  0  0  0  0
  -10.9499  -20.9722   17.5916 C   0  0  0  0  0  0  0  0  0  0  0  0
   -9.7519  -20.2183   17.3877 C   0  0  0  0  0  0  0  0  0  0  0  0
   -8.3879  -20.2373   18.1117 C   0  0  0  0  0  0  0  0  0  0  0  0
    3.4623  -20.2807   17.1605 H   0  0  0  0  0  0  0  0  0  0  0  0
    4.6499  -19.7970   15.9046 H   0  0  0  0  0  0  0  0  0  0  0  0
    4.6394  -21.4559   16.5384 H   0  0  0  0  0  0  0  0  0  0  0  0
    1.7157  -19.6132   15.7458 H   0  0  0  0  0  0  0  0  0  0  0  0
    2.8849  -19.1088   14.5216 H   0  0  0  0  0  0  0  0  0  0  0  0
    0.9702  -21.3783   14.1346 H   0  0  0  0  0  0  0  0  0  0  0  0
    2.8547  -21.6647   12.6504 H   0  0  0  0  0  0  0  0  0  0  0  0
    2.8861  -20.4906   10.4756 H   0  0  0  0  0  0  0  0  0  0  0  0
    0.6759  -19.2608   10.4029 H   0  0  0  0  0  0  0  0  0  0  0  0
    1.9042  -18.1424   10.8246 H   0  0  0  0  0  0  0  0  0  0  0  0
    1.0415  -18.3486   13.6111 H   0  0  0  0  0  0  0  0  0  0  0  0
    1.8625  -18.7570   12.8389 H   0  0  0  0  0  0  0  0  0  0  0  0
   -3.9985  -17.8137   13.9582 H   0  0  0  0  0  0  0  0  0  0  0  0
   -3.2065  -16.6640   14.8035 H   0  0  0  0  0  0  0  0  0  0  0  0
   -4.4317  -16.8049   16.7700 H   0  0  0  0  0  0  0  0  0  0  0  0
   -3.2115  -17.8393   17.2296 H   0  0  0  0  0  0  0  0  0  0  0  0
   -4.9218  -19.8130   18.1282 H   0  0  0  0  0  0  0  0  0  0  0  0
   -5.1284  -18.1735   18.8233 H   0  0  0  0  0  0  0  0  0  0  0  0
   -6.1749  -18.7413   20.4820 H   0  0  0  0  0  0  0  0  0  0  0  0
  -10.4323  -21.6553   20.7685 H   0  0  0  0  0  0  0  0  0  0  0  0
  -12.0955  -22.1319   18.9896 H   0  0  0  0  0  0  0  0  0  0  0  0
  -11.7595  -20.8833   16.8687 H   0  0  0  0  0  0  0  0  0  0  0  0
  -10.0755  -19.3082   16.8547 H   0  0  0  0  0  0  0  0  0  0  0  0
  1  2  1  0
  2  3  1  0
  3  4  1  0
  4  5  1  0
  5  6  2  0
  6  7  1  0
  7  8  1  0
  8  9  1  0
  9 10  1  0
 10 11  2  0
 10 12  1  0
 12 13  1  0
 13 14  1  0
 14 15  1  0
 15 16  1  0
 16 17  2  0
 17 18  1  0
 18 19  2  0
 19 20  1  0
 20 21  2  0
 21 22  1  0
 22 23  2  0
  9  4  1  0
 23 15  1  0
 23 18  1  0
  1 24  1  0
  1 25  1  0
  1 26  1  0
  3 27  1  0
  3 28  1  0
  4 29  1  0
  5 30  1  0
  6 31  1  0
  7 32  1  0
  7 33  1  0
  8 34  1  0
  8 35  1  0
 12 36  1  0
 12 37  1  0
 13 38  1  0
 13 39  1  0
 14 40  1  0
 14 41  1  0
 16 42  1  0
 19 43  1  0
 20 44  1  0
 21 45  1  0
 22 46  1  0
M  END
>  <Energy>  (1446) 
845.71288480461703

>  <compound_id>  (1446) 
17819

>  <target_id>  (1446) 
1

>  <reference_id>  (1446) 
85

>  <inspiration_ids>  (1446) 
[85, 94]

>  <energy_score>  (1446) 
771.9996140389211

>  <distance_score>  (1446) 
11.750684740617087

>  <path>  (1446) 
/opt/xchem-fragalysis-2/maxwin/BulkDock/SCRATCH/511014/C17819-P85/C17819-P85.minimised.mol

>  <scratch_subdir>  (1446) 
/opt/xchem-fragalysis-2/maxwin/BulkDock/SCRATCH/511014/C17819-P85

>  <fragmenstein_runtime>  (1446) 
11.11401891708374

>  <fragmenstein_outcome>  (1446) 
too moved

>  <fragmenstein_mode>  (1446) 
expansion

>  <fragmenstein_error>  (1446) 


$$$$
C17819-P94
     RDKit          3D

 46 48  0  0  0  0  0  0  0  0999 V2000
    2.3782  -22.9382   17.6301 C   0  0  0  0  0  0  0  0  0  0  0  0
    1.4027  -23.2139   18.6361 O   0  0  0  0  0  0  0  0  0  0  0  0
    1.6743  -22.4798   19.8797 C   0  0  0  0  0  0  0  0  0  0  0  0
    0.5131  -22.8959   21.4102 C   0  0  0  0  0  0  0  0  0  0  0  0
    1.0861  -24.5101   20.9793 C   0  0  0  0  0  0  0  0  0  0  0  0
    1.8501  -25.1909   21.8235 C   0  0  0  0  0  0  0  0  0  0  0  0
    1.7910  -24.5715   23.1549 C   0  0  0  0  0  0  0  0  0  0  0  0
    0.5187  -23.4368   23.2663 C   0  0  0  0  0  0  0  0  0  0  0  0
   -0.0101  -22.0326   23.2079 N   0  0  0  0  0  0  0  0  0  0  0  0
   -1.7180  -21.2946   23.7522 C   0  0  0  0  0  0  0  0  0  0  0  0
   -2.4226  -21.2972   22.8884 O   0  0  0  0  0  0  0  0  0  0  0  0
   -2.8090  -20.7780   25.4721 C   0  0  0  0  0  0  0  0  0  0  0  0
   -4.5457  -21.5770   26.4344 C   0  0  0  0  0  0  0  0  0  0  0  0
   -6.5522  -22.1410   26.8016 C   0  0  0  0  0  0  0  0  0  0  0  0
   -8.1281  -22.7386   27.8105 N   0  0  0  0  0  0  0  0  0  0  0  0
   -9.7549  -22.1974   28.1838 C   0  0  0  0  0  0  0  0  0  0  0  0
  -10.7500  -22.7622   27.5243 N   0  0  0  0  0  0  0  0  0  0  0  0
  -10.3623  -24.0107   27.3990 C   0  0  0  0  0  0  0  0  0  0  0  0
  -11.2636  -25.0739   27.2247 C   0  0  0  0  0  0  0  0  0  0  0  0
  -11.1327  -26.1470   28.0886 C   0  0  0  0  0  0  0  0  0  0  0  0
  -10.1299  -26.1148   29.0383 C   0  0  0  0  0  0  0  0  0  0  0  0
   -9.1292  -25.1344   29.0031 C   0  0  0  0  0  0  0  0  0  0  0  0
   -9.1084  -24.1152   28.0056 C   0  0  0  0  0  0  0  0  0  0  0  0
    2.0564  -23.4202   16.7033 H   0  0  0  0  0  0  0  0  0  0  0  0
    2.4660  -21.8620   17.4561 H   0  0  0  0  0  0  0  0  0  0  0  0
    3.3481  -23.3527   17.9202 H   0  0  0  0  0  0  0  0  0  0  0  0
    1.8045  -21.4116   19.7147 H   0  0  0  0  0  0  0  0  0  0  0  0
    2.6895  -22.8712   20.0173 H   0  0  0  0  0  0  0  0  0  0  0  0
   -0.2767  -22.6287   20.7696 H   0  0  0  0  0  0  0  0  0  0  0  0
    0.8315  -24.8915   19.9932 H   0  0  0  0  0  0  0  0  0  0  0  0
    2.2891  -26.1573   21.6168 H   0  0  0  0  0  0  0  0  0  0  0  0
    2.7654  -24.2178   23.5077 H   0  0  0  0  0  0  0  0  0  0  0  0
    1.5178  -25.3778   23.8538 H   0  0  0  0  0  0  0  0  0  0  0  0
    1.3295  -22.8615   23.7428 H   0  0  0  0  0  0  0  0  0  0  0  0
    0.3650  -23.7164   24.3253 H   0  0  0  0  0  0  0  0  0  0  0  0
   -2.2341  -21.1562   26.3184 H   0  0  0  0  0  0  0  0  0  0  0  0
   -2.9264  -19.7080   25.6039 H   0  0  0  0  0  0  0  0  0  0  0  0
   -4.4849  -20.8883   27.2934 H   0  0  0  0  0  0  0  0  0  0  0  0
   -4.0976  -22.5168   26.7914 H   0  0  0  0  0  0  0  0  0  0  0  0
   -6.8101  -22.7501   25.9365 H   0  0  0  0  0  0  0  0  0  0  0  0
   -6.9547  -21.1357   26.8997 H   0  0  0  0  0  0  0  0  0  0  0  0
  -10.0258  -21.3012   28.7160 H   0  0  0  0  0  0  0  0  0  0  0  0
  -12.2041  -24.9062   26.7076 H   0  0  0  0  0  0  0  0  0  0  0  0
  -11.9003  -26.9119   28.1297 H   0  0  0  0  0  0  0  0  0  0  0  0
  -10.1234  -26.8353   29.8539 H   0  0  0  0  0  0  0  0  0  0  0  0
   -8.4657  -25.1112   29.8455 H   0  0  0  0  0  0  0  0  0  0  0  0
  1  2  1  0
  2  3  1  0
  3  4  1  0
  4  5  1  0
  5  6  2  0
  6  7  1  0
  7  8  1  0
  8  9  1  0
  9 10  1  0
 10 11  2  0
 10 12  1  0
 12 13  1  0
 13 14  1  0
 14 15  1  0
 15 16  1  0
 16 17  2  0
 17 18  1  0
 18 19  2  0
 19 20  1  0
 20 21  2  0
 21 22  1  0
 22 23  2  0
  9  4  1  0
 23 15  1  0
 23 18  1  0
  1 24  1  0
  1 25  1  0
  1 26  1  0
  3 27  1  0
  3 28  1  0
  4 29  1  0
  5 30  1  0
  6 31  1  0
  7 32  1  0
  7 33  1  0
  8 34  1  0
  8 35  1  0
 12 36  1  0
 12 37  1  0
 13 38  1  0
 13 39  1  0
 14 40  1  0
 14 41  1  0
 16 42  1  0
 19 43  1  0
 20 44  1  0
 21 45  1  0
 22 46  1  0
M  END
>  <Energy>  (1447) 
1265.3437068531853

>  <compound_id>  (1447) 
17819

>  <target_id>  (1447) 
1

>  <reference_id>  (1447) 
94

>  <inspiration_ids>  (1447) 
[85, 94]

>  <energy_score>  (1447) 
1191.6304360874956

>  <distance_score>  (1447) 
10.663779019999241

>  <path>  (1447) 
/opt/xchem-fragalysis-2/maxwin/BulkDock/SCRATCH/511014/C17819-P94/C17819-P94.minimised.mol

>  <scratch_subdir>  (1447) 
/opt/xchem-fragalysis-2/maxwin/BulkDock/SCRATCH/511014/C17819-P94

>  <fragmenstein_runtime>  (1447) 
20.6803617477417

>  <fragmenstein_outcome>  (1447) 
too moved

>  <fragmenstein_mode>  (1447) 
expansion

>  <fragmenstein_error>  (1447) 


$$$$
C17820-P85
     RDKit          3D

 39 41  0  0  0  0  0  0  0  0999 V2000
    1.0856  -23.8929   20.9519 O   0  0  0  0  0  0  0  0  0  0  0  0
    1.0064  -22.7784   20.5138 C   0  0  0  0  0  0  0  0  0  0  0  0
    0.4610  -21.6001   21.5480 C   0  0  0  0  0  0  0  0  0  0  0  0
    0.5122  -21.3648   23.2470 C   0  0  0  0  0  0  0  0  0  0  0  0
    0.1592  -22.3229   24.5480 C   0  0  0  0  0  0  0  0  0  0  0  0
    0.1233  -22.2890   26.0652 N   0  0  0  0  0  0  0  0  0  0  0  0
    1.1547  -22.8282   26.8103 C   0  0  0  0  0  0  0  0  0  0  0  0
    0.7780  -23.3082   27.9755 N   0  0  0  0  0  0  0  0  0  0  0  0
   -0.5605  -23.0744   28.0726 C   0  0  0  0  0  0  0  0  0  0  0  0
   -1.4509  -23.4459   29.1061 C   0  0  0  0  0  0  0  0  0  0  0  0
   -2.7992  -23.0833   29.0452 C   0  0  0  0  0  0  0  0  0  0  0  0
   -3.2499  -22.3212   27.9820 C   0  0  0  0  0  0  0  0  0  0  0  0
   -2.3728  -21.9387   26.9519 C   0  0  0  0  0  0  0  0  0  0  0  0
   -1.0152  -22.3658   26.9582 C   0  0  0  0  0  0  0  0  0  0  0  0
    1.2792  -22.2754   19.1851 N   0  0  0  0  0  0  0  0  0  0  0  0
    2.7240  -21.8321   19.0814 C   0  0  0  0  0  0  0  0  0  0  0  0
    2.9964  -20.7266   17.9975 C   0  0  0  0  0  0  0  0  0  0  0  0
    3.0200  -21.3521   16.6663 C   0  0  0  0  0  0  0  0  0  0  0  0
    2.4355  -22.5442   16.6656 C   0  0  0  0  0  0  0  0  0  0  0  0
    2.8472  -23.8254   15.3638 Br  0  0  0  0  0  0  0  0  0  0  0  0
    1.6502  -23.0349   17.8666 C   0  0  0  0  0  0  0  0  0  0  0  0
    0.9130  -20.6770   21.1609 H   0  0  0  0  0  0  0  0  0  0  0  0
   -0.5988  -21.5072   21.2980 H   0  0  0  0  0  0  0  0  0  0  0  0
   -0.1805  -20.5363   23.1797 H   0  0  0  0  0  0  0  0  0  0  0  0
    1.4411  -20.8899   23.5499 H   0  0  0  0  0  0  0  0  0  0  0  0
   -0.8823  -22.2257   24.4008 H   0  0  0  0  0  0  0  0  0  0  0  0
    0.5754  -23.3110   24.3595 H   0  0  0  0  0  0  0  0  0  0  0  0
    2.1588  -22.9000   26.4131 H   0  0  0  0  0  0  0  0  0  0  0  0
   -1.0672  -24.0159   29.9468 H   0  0  0  0  0  0  0  0  0  0  0  0
   -3.4735  -23.3852   29.8408 H   0  0  0  0  0  0  0  0  0  0  0  0
   -4.2934  -22.0269   27.9265 H   0  0  0  0  0  0  0  0  0  0  0  0
   -2.7901  -21.3590   26.1346 H   0  0  0  0  0  0  0  0  0  0  0  0
    2.9216  -21.3281   20.0389 H   0  0  0  0  0  0  0  0  0  0  0  0
    3.4607  -22.6563   19.1126 H   0  0  0  0  0  0  0  0  0  0  0  0
    2.2347  -19.9432   18.0088 H   0  0  0  0  0  0  0  0  0  0  0  0
    3.9816  -20.2880   18.1830 H   0  0  0  0  0  0  0  0  0  0  0  0
    3.6185  -20.9610   15.8523 H   0  0  0  0  0  0  0  0  0  0  0  0
    0.6486  -23.2868   17.4863 H   0  0  0  0  0  0  0  0  0  0  0  0
    2.0494  -24.0103   18.1948 H   0  0  0  0  0  0  0  0  0  0  0  0
  1  2  2  0
  2  3  1  0
  3  4  1  0
  4  5  1  0
  5  6  1  0
  6  7  1  0
  7  8  2  0
  8  9  1  0
  9 10  2  0
 10 11  1  0
 11 12  2  0
 12 13  1  0
 13 14  2  0
  2 15  1  0
 15 16  1  0
 16 17  1  0
 17 18  1  0
 18 19  2  0
 19 20  1  0
 19 21  1  0
 14  6  1  0
 21 15  1  0
 14  9  1  0
  3 22  1  0
  3 23  1  0
  4 24  1  0
  4 25  1  0
  5 26  1  0
  5 27  1  0
  7 28  1  0
 10 29  1  0
 11 30  1  0
 12 31  1  0
 13 32  1  0
 16 33  1  0
 16 34  1  0
 17 35  1  0
 17 36  1  0
 18 37  1  0
 21 38  1  0
 21 39  1  0
M  END
>  <Energy>  (1448) 
184.2606081929859

>  <compound_id>  (1448) 
17820

>  <target_id>  (1448) 
1

>  <reference_id>  (1448) 
85

>  <inspiration_ids>  (1448) 
[85, 94]

>  <energy_score>  (1448) 
144.29943922292114

>  <distance_score>  (1448) 
11.521723030526054

>  <path>  (1448) 
/opt/xchem-fragalysis-2/maxwin/BulkDock/SCRATCH/511014/C17820-P85/C17820-P85.minimised.mol

>  <scratch_subdir>  (1448) 
/opt/xchem-fragalysis-2/maxwin/BulkDock/SCRATCH/511014/C17820-P85

>  <fragmenstein_runtime>  (1448) 
14.529165029525757

>  <fragmenstein_outcome>  (1448) 
too moved

>  <fragmenstein_mode>  (1448) 
expansion

>  <fragmenstein_error>  (1448) 


$$$$
C17820-P94
     RDKit          3D

 39 41  0  0  0  0  0  0  0  0999 V2000
   -1.1040  -17.4856   19.2457 O   0  0  0  0  0  0  0  0  0  0  0  0
   -1.2584  -18.4409   18.5107 C   0  0  0  0  0  0  0  0  0  0  0  0
   -3.1313  -19.0329   18.6390 C   0  0  0  0  0  0  0  0  0  0  0  0
   -3.9427  -20.1129   20.1321 C   0  0  0  0  0  0  0  0  0  0  0  0
   -5.2367  -21.1693   21.2780 C   0  0  0  0  0  0  0  0  0  0  0  0
   -6.0213  -21.8132   22.9887 N   0  0  0  0  0  0  0  0  0  0  0  0
   -5.6380  -23.3124   23.5693 C   0  0  0  0  0  0  0  0  0  0  0  0
   -5.4877  -23.1330   24.8687 N   0  0  0  0  0  0  0  0  0  0  0  0
   -6.7620  -22.9724   25.0766 C   0  0  0  0  0  0  0  0  0  0  0  0
   -7.5562  -23.1551   26.3715 C   0  0  0  0  0  0  0  0  0  0  0  0
   -9.1464  -23.9930   26.3630 C   0  0  0  0  0  0  0  0  0  0  0  0
   -9.7655  -24.1605   24.8273 C   0  0  0  0  0  0  0  0  0  0  0  0
   -8.8576  -23.4208   23.5362 C   0  0  0  0  0  0  0  0  0  0  0  0
   -7.3489  -22.7347   23.7026 C   0  0  0  0  0  0  0  0  0  0  0  0
    0.2624  -19.2498   17.6125 N   0  0  0  0  0  0  0  0  0  0  0  0
    1.0408  -18.9142   15.9617 C   0  0  0  0  0  0  0  0  0  0  0  0
    1.8767  -20.1190   15.3014 C   0  0  0  0  0  0  0  0  0  0  0  0
    3.0995  -20.3585   16.0399 C   0  0  0  0  0  0  0  0  0  0  0  0
    3.0874  -19.7956   17.2364 C   0  0  0  0  0  0  0  0  0  0  0  0
    4.6029  -20.0195   18.3255 Br  0  0  0  0  0  0  0  0  0  0  0  0
    1.8925  -18.9389   17.7553 C   0  0  0  0  0  0  0  0  0  0  0  0
   -3.4553  -18.0773   19.1034 H   0  0  0  0  0  0  0  0  0  0  0  0
   -3.7859  -18.9343   17.7748 H   0  0  0  0  0  0  0  0  0  0  0  0
   -4.7076  -20.2141   19.3771 H   0  0  0  0  0  0  0  0  0  0  0  0
   -3.1190  -20.7697   20.3084 H   0  0  0  0  0  0  0  0  0  0  0  0
   -5.8874  -20.2497   21.0980 H   0  0  0  0  0  0  0  0  0  0  0  0
   -5.1506  -22.0857   20.7818 H   0  0  0  0  0  0  0  0  0  0  0  0
   -5.2794  -24.0667   22.8698 H   0  0  0  0  0  0  0  0  0  0  0  0
   -7.0799  -22.8491   27.3018 H   0  0  0  0  0  0  0  0  0  0  0  0
   -9.7245  -24.1533   27.2700 H   0  0  0  0  0  0  0  0  0  0  0  0
  -10.8347  -24.3571   24.7812 H   0  0  0  0  0  0  0  0  0  0  0  0
   -9.4571  -23.0301   22.7167 H   0  0  0  0  0  0  0  0  0  0  0  0
    0.4397  -18.5940   15.1156 H   0  0  0  0  0  0  0  0  0  0  0  0
    1.7310  -18.0663   16.0704 H   0  0  0  0  0  0  0  0  0  0  0  0
    1.3606  -21.0744   15.3102 H   0  0  0  0  0  0  0  0  0  0  0  0
    2.1196  -19.8652   14.2637 H   0  0  0  0  0  0  0  0  0  0  0  0
    3.9055  -20.9589   15.6391 H   0  0  0  0  0  0  0  0  0  0  0  0
    2.0196  -19.3631   18.7461 H   0  0  0  0  0  0  0  0  0  0  0  0
    2.0998  -17.8635   17.7691 H   0  0  0  0  0  0  0  0  0  0  0  0
  1  2  2  0
  2  3  1  0
  3  4  1  0
  4  5  1  0
  5  6  1  0
  6  7  1  0
  7  8  2  0
  8  9  1  0
  9 10  2  0
 10 11  1  0
 11 12  2  0
 12 13  1  0
 13 14  2  0
  2 15  1  0
 15 16  1  0
 16 17  1  0
 17 18  1  0
 18 19  2  0
 19 20  1  0
 19 21  1  0
 14  6  1  0
 21 15  1  0
 14  9  1  0
  3 22  1  0
  3 23  1  0
  4 24  1  0
  4 25  1  0
  5 26  1  0
  5 27  1  0
  7 28  1  0
 10 29  1  0
 11 30  1  0
 12 31  1  0
 13 32  1  0
 16 33  1  0
 16 34  1  0
 17 35  1  0
 17 36  1  0
 18 37  1  0
 21 38  1  0
 21 39  1  0
M  END
>  <Energy>  (1449) 
1031.8227836507217

>  <compound_id>  (1449) 
17820

>  <target_id>  (1449) 
1

>  <reference_id>  (1449) 
94

>  <inspiration_ids>  (1449) 
[85, 94]

>  <energy_score>  (1449) 
991.861614680634

>  <distance_score>  (1449) 
9.458385968003963

>  <path>  (1449) 
/opt/xchem-fragalysis-2/maxwin/BulkDock/SCRATCH/511014/C17820-P94/C17820-P94.minimised.mol

>  <scratch_subdir>  (1449) 
/opt/xchem-fragalysis-2/maxwin/BulkDock/SCRATCH/511014/C17820-P94

>  <fragmenstein_runtime>  (1449) 
17.71324896812439

>  <fragmenstein_outcome>  (1449) 
too moved

>  <fragmenstein_mode>  (1449) 
expansion

>  <fragmenstein_error>  (1449) 


$$$$
C17823-P85
     RDKit          3D

 38 40  0  0  0  0  0  0  0  0999 V2000
   -7.2146  -18.8776   20.7592 O   0  0  0  0  0  0  0  0  0  0  0  0
   -6.1619  -19.2932   20.5021 C   0  0  0  0  0  0  0  0  0  0  0  0
   -5.4313  -20.5260   21.2005 N   0  0  0  0  0  0  0  0  0  0  0  0
   -5.9668  -21.6333   22.8074 C   0  0  0  0  0  0  0  0  0  0  0  0
   -6.8848  -23.3056   23.5795 C   0  0  0  0  0  0  0  0  0  0  0  0
   -7.6766  -23.5161   25.3554 N   0  0  0  0  0  0  0  0  0  0  0  0
   -7.3657  -22.8199   26.6782 C   0  0  0  0  0  0  0  0  0  0  0  0
   -8.2117  -22.8763   27.6898 N   0  0  0  0  0  0  0  0  0  0  0  0
   -9.2541  -23.7491   27.4285 C   0  0  0  0  0  0  0  0  0  0  0  0
  -10.5335  -23.8986   28.1076 C   0  0  0  0  0  0  0  0  0  0  0  0
  -11.5102  -24.8031   27.7635 C   0  0  0  0  0  0  0  0  0  0  0  0
  -11.4064  -25.2886   26.5120 C   0  0  0  0  0  0  0  0  0  0  0  0
  -10.3492  -24.7866   25.7393 C   0  0  0  0  0  0  0  0  0  0  0  0
   -9.0615  -24.3146   26.1326 C   0  0  0  0  0  0  0  0  0  0  0  0
   -5.1589  -18.6102   19.4705 N   0  0  0  0  0  0  0  0  0  0  0  0
   -5.2518  -17.3510   18.7465 C   0  0  0  0  0  0  0  0  0  0  0  0
   -5.3049  -16.2077   17.2372 C   0  0  0  0  0  0  0  0  0  0  0  0
   -4.2589  -16.7440   16.5595 C   0  0  0  0  0  0  0  0  0  0  0  0
   -4.0941  -17.9956   17.0123 C   0  0  0  0  0  0  0  0  0  0  0  0
   -3.3712  -18.4754   16.0605 F   0  0  0  0  0  0  0  0  0  0  0  0
   -5.2093  -18.9894   18.1162 C   0  0  0  0  0  0  0  0  0  0  0  0
   -4.5014  -20.6064   20.8327 H   0  0  0  0  0  0  0  0  0  0  0  0
   -6.7860  -20.9263   22.9884 H   0  0  0  0  0  0  0  0  0  0  0  0
   -5.3193  -22.1100   22.0700 H   0  0  0  0  0  0  0  0  0  0  0  0
   -7.9110  -23.2540   23.2011 H   0  0  0  0  0  0  0  0  0  0  0  0
   -6.1846  -24.1324   23.5356 H   0  0  0  0  0  0  0  0  0  0  0  0
   -6.3356  -22.4529   26.7975 H   0  0  0  0  0  0  0  0  0  0  0  0
  -10.8341  -23.1978   28.8812 H   0  0  0  0  0  0  0  0  0  0  0  0
  -12.4112  -24.9138   28.3553 H   0  0  0  0  0  0  0  0  0  0  0  0
  -12.2773  -25.7455   26.0539 H   0  0  0  0  0  0  0  0  0  0  0  0
  -10.6998  -24.2807   24.8657 H   0  0  0  0  0  0  0  0  0  0  0  0
   -4.3075  -16.9999   19.1360 H   0  0  0  0  0  0  0  0  0  0  0  0
   -6.2197  -17.2544   19.2587 H   0  0  0  0  0  0  0  0  0  0  0  0
   -5.1344  -15.1398   17.2170 H   0  0  0  0  0  0  0  0  0  0  0  0
   -6.2479  -16.1065   16.6505 H   0  0  0  0  0  0  0  0  0  0  0  0
   -3.9333  -16.2659   15.6395 H   0  0  0  0  0  0  0  0  0  0  0  0
   -4.9341  -19.9887   17.9895 H   0  0  0  0  0  0  0  0  0  0  0  0
   -6.3044  -18.8938   18.0334 H   0  0  0  0  0  0  0  0  0  0  0  0
  1  2  2  0
  2  3  1  0
  3  4  1  0
  4  5  1  0
  5  6  1  0
  6  7  1  0
  7  8  2  0
  8  9  1  0
  9 10  2  0
 10 11  1  0
 11 12  2  0
 12 13  1  0
 13 14  2  0
  2 15  1  0
 15 16  1  0
 16 17  1  0
 17 18  1  0
 18 19  2  0
 19 20  1  0
 19 21  1  0
 14  6  1  0
 21 15  1  0
 14  9  1  0
  3 22  1  0
  4 23  1  0
  4 24  1  0
  5 25  1  0
  5 26  1  0
  7 27  1  0
 10 28  1  0
 11 29  1  0
 12 30  1  0
 13 31  1  0
 16 32  1  0
 16 33  1  0
 17 34  1  0
 17 35  1  0
 18 36  1  0
 21 37  1  0
 21 38  1  0
M  END
>  <Energy>  (1450) 
685.97842077098107

>  <compound_id>  (1450) 
17823

>  <target_id>  (1450) 
1

>  <reference_id>  (1450) 
85

>  <inspiration_ids>  (1450) 
[85, 94]

>  <energy_score>  (1450) 
705.6845046934172

>  <distance_score>  (1450) 
9.374145310530194

>  <path>  (1450) 
/opt/xchem-fragalysis-2/maxwin/BulkDock/SCRATCH/511014/C17823-P85/C17823-P85.minimised.mol

>  <scratch_subdir>  (1450) 
/opt/xchem-fragalysis-2/maxwin/BulkDock/SCRATCH/511014/C17823-P85

>  <fragmenstein_runtime>  (1450) 
9.439859867095947

>  <fragmenstein_outcome>  (1450) 
too moved

>  <fragmenstein_mode>  (1450) 
expansion

>  <fragmenstein_error>  (1450) 


$$$$
C17823-P94
     RDKit          3D

 38 40  0  0  0  0  0  0  0  0999 V2000
   -7.4929  -19.7262   18.6344 O   0  0  0  0  0  0  0  0  0  0  0  0
   -6.4843  -19.7393   19.1031 C   0  0  0  0  0  0  0  0  0  0  0  0
   -6.1904  -19.5113   20.5340 N   0  0  0  0  0  0  0  0  0  0  0  0
   -7.2598  -19.3037   21.9142 C   0  0  0  0  0  0  0  0  0  0  0  0
   -8.4859  -20.8571   22.2501 C   0  0  0  0  0  0  0  0  0  0  0  0
  -10.1075  -21.1493   22.6635 N   0  0  0  0  0  0  0  0  0  0  0  0
  -10.9991  -20.2668   23.2473 C   0  0  0  0  0  0  0  0  0  0  0  0
  -11.9539  -20.9121   23.8548 N   0  0  0  0  0  0  0  0  0  0  0  0
  -12.1233  -21.9475   23.0050 C   0  0  0  0  0  0  0  0  0  0  0  0
  -13.2533  -22.7554   22.8569 C   0  0  0  0  0  0  0  0  0  0  0  0
  -13.4319  -23.3616   21.6159 C   0  0  0  0  0  0  0  0  0  0  0  0
  -12.5000  -23.1667   20.5871 C   0  0  0  0  0  0  0  0  0  0  0  0
  -11.2921  -22.4734   20.7897 C   0  0  0  0  0  0  0  0  0  0  0  0
  -11.0775  -21.9502   22.0605 C   0  0  0  0  0  0  0  0  0  0  0  0
   -5.3178  -20.1714   18.2613 N   0  0  0  0  0  0  0  0  0  0  0  0
   -5.2555  -20.8900   16.5210 C   0  0  0  0  0  0  0  0  0  0  0  0
   -3.4549  -21.3994   15.0571 C   0  0  0  0  0  0  0  0  0  0  0  0
   -2.3320  -19.4274   15.4235 C   0  0  0  0  0  0  0  0  0  0  0  0
   -3.3901  -18.4270   16.3739 C   0  0  0  0  0  0  0  0  0  0  0  0
   -3.7785  -17.2327   15.7769 F   0  0  0  0  0  0  0  0  0  0  0  0
   -4.6252  -18.8671   17.5342 C   0  0  0  0  0  0  0  0  0  0  0  0
   -5.2032  -19.6657   20.6903 H   0  0  0  0  0  0  0  0  0  0  0  0
   -6.6249  -19.3093   22.8017 H   0  0  0  0  0  0  0  0  0  0  0  0
   -7.7192  -18.3172   21.8421 H   0  0  0  0  0  0  0  0  0  0  0  0
   -7.9658  -21.5759   22.9249 H   0  0  0  0  0  0  0  0  0  0  0  0
   -8.7556  -21.1909   21.2201 H   0  0  0  0  0  0  0  0  0  0  0  0
  -10.9707  -19.1923   23.1166 H   0  0  0  0  0  0  0  0  0  0  0  0
  -14.0300  -22.7600   23.6137 H   0  0  0  0  0  0  0  0  0  0  0  0
  -14.3425  -23.9239   21.4212 H   0  0  0  0  0  0  0  0  0  0  0  0
  -12.7153  -23.5764   19.6011 H   0  0  0  0  0  0  0  0  0  0  0  0
  -10.6105  -22.2824   19.9729 H   0  0  0  0  0  0  0  0  0  0  0  0
   -5.1206  -22.1685   16.7910 H   0  0  0  0  0  0  0  0  0  0  0  0
   -6.2081  -21.3678   17.0028 H   0  0  0  0  0  0  0  0  0  0  0  0
   -3.5414  -21.2340   13.9649 H   0  0  0  0  0  0  0  0  0  0  0  0
   -3.6406  -22.3713   15.4944 H   0  0  0  0  0  0  0  0  0  0  0  0
   -1.8189  -18.8819   14.6059 H   0  0  0  0  0  0  0  0  0  0  0  0
   -3.8355  -18.8806   18.3215 H   0  0  0  0  0  0  0  0  0  0  0  0
   -5.0386  -17.9567   17.9946 H   0  0  0  0  0  0  0  0  0  0  0  0
  1  2  2  0
  2  3  1  0
  3  4  1  0
  4  5  1  0
  5  6  1  0
  6  7  1  0
  7  8  2  0
  8  9  1  0
  9 10  2  0
 10 11  1  0
 11 12  2  0
 12 13  1  0
 13 14  2  0
  2 15  1  0
 15 16  1  0
 16 17  1  0
 17 18  1  0
 18 19  2  0
 19 20  1  0
 19 21  1  0
 14  6  1  0
 21 15  1  0
 14  9  1  0
  3 22  1  0
  4 23  1  0
  4 24  1  0
  5 25  1  0
  5 26  1  0
  7 27  1  0
 10 28  1  0
 11 29  1  0
 12 30  1  0
 13 31  1  0
 16 32  1  0
 16 33  1  0
 17 34  1  0
 17 35  1  0
 18 36  1  0
 21 37  1  0
 21 38  1  0
M  END
>  <Energy>  (1451) 
911.42442863294525

>  <compound_id>  (1451) 
17823

>  <target_id>  (1451) 
1

>  <reference_id>  (1451) 
94

>  <inspiration_ids>  (1451) 
[85, 94]

>  <energy_score>  (1451) 
931.1305125553633

>  <distance_score>  (1451) 
10.381688143341805

>  <path>  (1451) 
/opt/xchem-fragalysis-2/maxwin/BulkDock/SCRATCH/511014/C17823-P94/C17823-P94.minimised.mol

>  <scratch_subdir>  (1451) 
/opt/xchem-fragalysis-2/maxwin/BulkDock/SCRATCH/511014/C17823-P94

>  <fragmenstein_runtime>  (1451) 
18.033653020858765

>  <fragmenstein_outcome>  (1451) 
too moved

>  <fragmenstein_mode>  (1451) 
expansion

>  <fragmenstein_error>  (1451) 


$$$$
C17825-P85
     RDKit          3D

 36 38  0  0  0  0  0  0  0  0999 V2000
   -4.5216  -20.1613   20.0238 O   0  0  0  0  0  0  0  0  0  0  0  0
   -4.2846  -21.4712   20.0615 C   0  0  0  0  0  0  0  0  0  0  0  0
   -5.1711  -22.2064   21.8034 C   0  0  0  0  0  0  0  0  0  0  0  0
   -6.3222  -23.4443   23.1796 C   0  0  0  0  0  0  0  0  0  0  0  0
   -7.6428  -23.6707   24.6323 N   0  0  0  0  0  0  0  0  0  0  0  0
   -7.1539  -23.0486   26.0590 C   0  0  0  0  0  0  0  0  0  0  0  0
   -7.9582  -22.9740   27.1123 N   0  0  0  0  0  0  0  0  0  0  0  0
   -8.9928  -23.9021   26.9470 C   0  0  0  0  0  0  0  0  0  0  0  0
  -10.0911  -24.1451   27.8754 C   0  0  0  0  0  0  0  0  0  0  0  0
  -11.4233  -24.1284   27.5809 C   0  0  0  0  0  0  0  0  0  0  0  0
  -11.6587  -24.3134   26.2820 C   0  0  0  0  0  0  0  0  0  0  0  0
  -10.5284  -24.7301   25.5119 C   0  0  0  0  0  0  0  0  0  0  0  0
   -8.9780  -24.4986   25.5844 C   0  0  0  0  0  0  0  0  0  0  0  0
   -3.3517  -22.5957   18.5679 N   0  0  0  0  0  0  0  0  0  0  0  0
   -2.7170  -22.0967   16.6227 C   0  0  0  0  0  0  0  0  0  0  0  0
   -2.2061  -21.0837   14.5287 C   0  0  0  0  0  0  0  0  0  0  0  0
    0.0311  -21.8252   15.1902 C   0  0  0  0  0  0  0  0  0  0  0  0
   -0.0520  -22.5887   16.7493 C   0  0  0  0  0  0  0  0  0  0  0  0
    1.2093  -22.9621   17.1304 F   0  0  0  0  0  0  0  0  0  0  0  0
   -1.2954  -23.1165   18.2759 C   0  0  0  0  0  0  0  0  0  0  0  0
   -5.6828  -21.4677   22.4040 H   0  0  0  0  0  0  0  0  0  0  0  0
   -4.3726  -21.5077   22.1512 H   0  0  0  0  0  0  0  0  0  0  0  0
   -5.6927  -23.4746   24.0673 H   0  0  0  0  0  0  0  0  0  0  0  0
   -6.1367  -24.4819   22.8548 H   0  0  0  0  0  0  0  0  0  0  0  0
   -6.0904  -22.7599   26.0244 H   0  0  0  0  0  0  0  0  0  0  0  0
   -9.9035  -24.7725   28.7422 H   0  0  0  0  0  0  0  0  0  0  0  0
  -12.1950  -24.2103   28.3344 H   0  0  0  0  0  0  0  0  0  0  0  0
  -12.6757  -24.5535   25.9816 H   0  0  0  0  0  0  0  0  0  0  0  0
  -10.7604  -25.8351   25.4640 H   0  0  0  0  0  0  0  0  0  0  0  0
   -2.0726  -23.0434   16.7404 H   0  0  0  0  0  0  0  0  0  0  0  0
   -3.7268  -22.4167   16.1030 H   0  0  0  0  0  0  0  0  0  0  0  0
   -1.4422  -20.4132   13.8572 H   0  0  0  0  0  0  0  0  0  0  0  0
   -2.0349  -19.7810   14.6908 H   0  0  0  0  0  0  0  0  0  0  0  0
    0.9846  -21.6261   14.6481 H   0  0  0  0  0  0  0  0  0  0  0  0
   -1.3344  -24.2149   18.1941 H   0  0  0  0  0  0  0  0  0  0  0  0
   -0.6958  -22.6600   19.0926 H   0  0  0  0  0  0  0  0  0  0  0  0
  1  2  2  0
  2  3  1  0
  3  4  1  0
  4  5  1  0
  5  6  1  0
  6  7  2  0
  7  8  1  0
  8  9  2  0
  9 10  1  0
 10 11  2  0
 11 12  1  0
 12 13  2  0
  2 14  1  0
 14 15  1  0
 15 16  1  0
 16 17  1  0
 17 18  2  0
 18 19  1  0
 18 20  1  0
 13  5  1  0
 20 14  1  0
 13  8  1  0
  3 21  1  0
  3 22  1  0
  4 23  1  0
  4 24  1  0
  6 25  1  0
  9 26  1  0
 10 27  1  0
 11 28  1  0
 12 29  1  0
 15 30  1  0
 15 31  1  0
 16 32  1  0
 16 33  1  0
 17 34  1  0
 20 35  1  0
 20 36  1  0
M  END
>  <Energy>  (1452) 
2171.9144028313372

>  <compound_id>  (1452) 
17825

>  <target_id>  (1452) 
1

>  <reference_id>  (1452) 
85

>  <inspiration_ids>  (1452) 
[85, 94]

>  <energy_score>  (1452) 
2150.4749586937555

>  <distance_score>  (1452) 
8.775726625443914

>  <path>  (1452) 
/opt/xchem-fragalysis-2/maxwin/BulkDock/SCRATCH/511014/C17825-P85/C17825-P85.minimised.mol

>  <scratch_subdir>  (1452) 
/opt/xchem-fragalysis-2/maxwin/BulkDock/SCRATCH/511014/C17825-P85

>  <fragmenstein_runtime>  (1452) 
6.51940131187439

>  <fragmenstein_outcome>  (1452) 
too moved

>  <fragmenstein_mode>  (1452) 
expansion

>  <fragmenstein_error>  (1452) 


$$$$
C17825-P94
     RDKit          3D

 36 38  0  0  0  0  0  0  0  0999 V2000
   -5.9720  -18.9220   20.1438 O   0  0  0  0  0  0  0  0  0  0  0  0
   -5.2824  -19.8675   19.8057 C   0  0  0  0  0  0  0  0  0  0  0  0
   -5.2525  -21.2269   21.2398 C   0  0  0  0  0  0  0  0  0  0  0  0
   -6.1280  -21.5142   23.1561 C   0  0  0  0  0  0  0  0  0  0  0  0
   -6.2168  -22.6199   24.6901 N   0  0  0  0  0  0  0  0  0  0  0  0
   -5.4603  -22.0131   25.8274 C   0  0  0  0  0  0  0  0  0  0  0  0
   -6.0157  -21.9760   27.0444 N   0  0  0  0  0  0  0  0  0  0  0  0
   -7.2060  -22.6571   27.0551 C   0  0  0  0  0  0  0  0  0  0  0  0
   -8.5406  -22.9125   28.0305 C   0  0  0  0  0  0  0  0  0  0  0  0
   -9.9534  -23.3563   27.9646 C   0  0  0  0  0  0  0  0  0  0  0  0
  -10.1560  -24.2000   26.9684 C   0  0  0  0  0  0  0  0  0  0  0  0
   -9.0581  -24.1001   26.0799 C   0  0  0  0  0  0  0  0  0  0  0  0
   -7.3650  -23.2914   25.8040 C   0  0  0  0  0  0  0  0  0  0  0  0
   -4.2795  -20.0773   18.3896 N   0  0  0  0  0  0  0  0  0  0  0  0
   -3.8270  -18.7731   17.0073 C   0  0  0  0  0  0  0  0  0  0  0  0
   -2.3498  -18.9809   15.5459 C   0  0  0  0  0  0  0  0  0  0  0  0
   -2.8383  -20.8438   14.5226 C   0  0  0  0  0  0  0  0  0  0  0  0
   -3.9226  -21.9385   15.4472 C   0  0  0  0  0  0  0  0  0  0  0  0
   -3.5324  -23.1175   14.8666 F   0  0  0  0  0  0  0  0  0  0  0  0
   -5.3827  -20.9657   16.8809 C   0  0  0  0  0  0  0  0  0  0  0  0
   -4.1863  -21.0504   21.2407 H   0  0  0  0  0  0  0  0  0  0  0  0
   -5.1408  -22.1566   20.7514 H   0  0  0  0  0  0  0  0  0  0  0  0
   -6.0470  -20.5797   23.7226 H   0  0  0  0  0  0  0  0  0  0  0  0
   -7.2125  -21.6345   23.1223 H   0  0  0  0  0  0  0  0  0  0  0  0
   -4.5599  -21.4736   25.5714 H   0  0  0  0  0  0  0  0  0  0  0  0
   -8.4632  -23.9165   28.5378 H   0  0  0  0  0  0  0  0  0  0  0  0
  -10.6941  -23.1545   28.7279 H   0  0  0  0  0  0  0  0  0  0  0  0
  -11.0993  -24.6689   26.7355 H   0  0  0  0  0  0  0  0  0  0  0  0
   -9.5289  -24.3015   25.0250 H   0  0  0  0  0  0  0  0  0  0  0  0
   -3.1988  -18.3016   17.7915 H   0  0  0  0  0  0  0  0  0  0  0  0
   -4.4168  -17.8658   16.9711 H   0  0  0  0  0  0  0  0  0  0  0  0
   -2.4585  -18.0613   14.8779 H   0  0  0  0  0  0  0  0  0  0  0  0
   -1.3487  -18.7339   15.7867 H   0  0  0  0  0  0  0  0  0  0  0  0
   -2.1147  -20.6454   13.7973 H   0  0  0  0  0  0  0  0  0  0  0  0
   -6.3103  -21.4346   17.2917 H   0  0  0  0  0  0  0  0  0  0  0  0
   -5.2349  -19.8770   16.9459 H   0  0  0  0  0  0  0  0  0  0  0  0
  1  2  2  0
  2  3  1  0
  3  4  1  0
  4  5  1  0
  5  6  1  0
  6  7  2  0
  7  8  1  0
  8  9  2  0
  9 10  1  0
 10 11  2  0
 11 12  1  0
 12 13  2  0
  2 14  1  0
 14 15  1  0
 15 16  1  0
 16 17  1  0
 17 18  2  0
 18 19  1  0
 18 20  1  0
 13  5  1  0
 20 14  1  0
 13  8  1  0
  3 21  1  0
  3 22  1  0
  4 23  1  0
  4 24  1  0
  6 25  1  0
  9 26  1  0
 10 27  1  0
 11 28  1  0
 12 29  1  0
 15 30  1  0
 15 31  1  0
 16 32  1  0
 16 33  1  0
 17 34  1  0
 20 35  1  0
 20 36  1  0
M  END
>  <Energy>  (1453) 
1335.4971002306713

>  <compound_id>  (1453) 
17825

>  <target_id>  (1453) 
1

>  <reference_id>  (1453) 
94

>  <inspiration_ids>  (1453) 
[85, 94]

>  <energy_score>  (1453) 
1314.0576560930804

>  <distance_score>  (1453) 
9.30761978720223

>  <path>  (1453) 
/opt/xchem-fragalysis-2/maxwin/BulkDock/SCRATCH/511014/C17825-P94/C17825-P94.minimised.mol

>  <scratch_subdir>  (1453) 
/opt/xchem-fragalysis-2/maxwin/BulkDock/SCRATCH/511014/C17825-P94

>  <fragmenstein_runtime>  (1453) 
19.535741329193115

>  <fragmenstein_outcome>  (1453) 
too moved

>  <fragmenstein_mode>  (1453) 
expansion

>  <fragmenstein_error>  (1453) 


$$$$
C17826-P85
     RDKit          3D

 41 43  0  0  0  0  0  0  0  0999 V2000
   -3.5765  -22.0096   18.7571 O   0  0  0  0  0  0  0  0  0  0  0  0
   -3.6842  -22.3428   17.6834 C   0  0  0  0  0  0  0  0  0  0  0  0
   -4.9279  -22.7554   16.8223 N   0  0  0  0  0  0  0  0  0  0  0  0
   -6.6579  -23.0362   17.2377 C   0  0  0  0  0  0  0  0  0  0  0  0
   -7.9249  -24.5998   16.5352 C   0  0  0  0  0  0  0  0  0  0  0  0
   -8.1549  -25.9439   17.7382 C   0  0  0  0  0  0  0  0  0  0  0  0
   -9.2546  -26.3708   18.6022 N   0  0  0  0  0  0  0  0  0  0  0  0
  -10.5981  -26.1262   18.5043 C   0  0  0  0  0  0  0  0  0  0  0  0
  -11.2892  -26.6691   19.4816 N   0  0  0  0  0  0  0  0  0  0  0  0
  -10.4078  -27.4869   20.1387 C   0  0  0  0  0  0  0  0  0  0  0  0
  -10.6287  -28.4132   21.1744 C   0  0  0  0  0  0  0  0  0  0  0  0
   -9.5620  -29.1476   21.6921 C   0  0  0  0  0  0  0  0  0  0  0  0
   -8.2992  -29.0173   21.1293 C   0  0  0  0  0  0  0  0  0  0  0  0
   -8.0691  -28.1484   20.0510 C   0  0  0  0  0  0  0  0  0  0  0  0
   -9.1327  -27.3508   19.5953 C   0  0  0  0  0  0  0  0  0  0  0  0
   -2.6396  -22.4798   16.3502 N   0  0  0  0  0  0  0  0  0  0  0  0
   -2.4617  -20.8711   14.7591 C   0  0  0  0  0  0  0  0  0  0  0  0
   -0.6982  -20.3028   13.6811 C   0  0  0  0  0  0  0  0  0  0  0  0
    1.0834  -20.9167   14.3249 C   0  0  0  0  0  0  0  0  0  0  0  0
    1.0794  -21.5411   15.7036 C   0  0  0  0  0  0  0  0  0  0  0  0
    2.2498  -21.8553   16.3058 F   0  0  0  0  0  0  0  0  0  0  0  0
   -0.5266  -22.2156   16.5740 C   0  0  0  0  0  0  0  0  0  0  0  0
   -4.6474  -22.9083   15.8981 H   0  0  0  0  0  0  0  0  0  0  0  0
   -6.0849  -23.6469   17.6587 H   0  0  0  0  0  0  0  0  0  0  0  0
   -7.0356  -23.7417   18.0251 H   0  0  0  0  0  0  0  0  0  0  0  0
   -8.8776  -24.2834   16.0530 H   0  0  0  0  0  0  0  0  0  0  0  0
   -7.5971  -25.3262   15.7924 H   0  0  0  0  0  0  0  0  0  0  0  0
   -7.9954  -26.8354   17.1108 H   0  0  0  0  0  0  0  0  0  0  0  0
   -7.2890  -25.8981   18.3915 H   0  0  0  0  0  0  0  0  0  0  0  0
  -11.0434  -25.5555   17.6992 H   0  0  0  0  0  0  0  0  0  0  0  0
  -11.6285  -28.5533   21.5647 H   0  0  0  0  0  0  0  0  0  0  0  0
   -9.7318  -29.8375   22.5129 H   0  0  0  0  0  0  0  0  0  0  0  0
   -7.4752  -29.6117   21.5178 H   0  0  0  0  0  0  0  0  0  0  0  0
   -7.0766  -28.0742   19.6191 H   0  0  0  0  0  0  0  0  0  0  0  0
   -2.1469  -19.5678   15.0116 H   0  0  0  0  0  0  0  0  0  0  0  0
   -3.2216  -21.3848   14.0910 H   0  0  0  0  0  0  0  0  0  0  0  0
   -0.3920  -19.9495   12.6906 H   0  0  0  0  0  0  0  0  0  0  0  0
   -0.7653  -19.2421   13.9340 H   0  0  0  0  0  0  0  0  0  0  0  0
    1.9513  -20.5480   13.7935 H   0  0  0  0  0  0  0  0  0  0  0  0
   -0.3183  -23.3274   16.5243 H   0  0  0  0  0  0  0  0  0  0  0  0
   -0.2341  -22.2644   17.6426 H   0  0  0  0  0  0  0  0  0  0  0  0
  1  2  2  0
  2  3  1  0
  3  4  1  0
  4  5  1  0
  5  6  1  0
  6  7  1  0
  7  8  1  0
  8  9  2  0
  9 10  1  0
 10 11  2  0
 11 12  1  0
 12 13  2  0
 13 14  1  0
 14 15  2  0
  2 16  1  0
 16 17  1  0
 17 18  1  0
 18 19  1  0
 19 20  2  0
 20 21  1  0
 20 22  1  0
 15  7  1  0
 22 16  1  0
 15 10  1  0
  3 23  1  0
  4 24  1  0
  4 25  1  0
  5 26  1  0
  5 27  1  0
  6 28  1  0
  6 29  1  0
  8 30  1  0
 11 31  1  0
 12 32  1  0
 13 33  1  0
 14 34  1  0
 17 35  1  0
 17 36  1  0
 18 37  1  0
 18 38  1  0
 19 39  1  0
 22 40  1  0
 22 41  1  0
M  END
>  <Energy>  (1454) 
991.66886678138144

>  <compound_id>  (1454) 
17826

>  <target_id>  (1454) 
1

>  <reference_id>  (1454) 
85

>  <inspiration_ids>  (1454) 
[85, 94]

>  <energy_score>  (1454) 
1019.4616074996893

>  <distance_score>  (1454) 
11.555528715963105

>  <path>  (1454) 
/opt/xchem-fragalysis-2/maxwin/BulkDock/SCRATCH/511014/C17826-P85/C17826-P85.minimised.mol

>  <scratch_subdir>  (1454) 
/opt/xchem-fragalysis-2/maxwin/BulkDock/SCRATCH/511014/C17826-P85

>  <fragmenstein_runtime>  (1454) 
10.582229137420654

>  <fragmenstein_outcome>  (1454) 
too moved

>  <fragmenstein_mode>  (1454) 
expansion

>  <fragmenstein_error>  (1454) 


$$$$
C17826-P94
     RDKit          3D

 41 43  0  0  0  0  0  0  0  0999 V2000
   -1.7707  -26.2941   21.7587 O   0  0  0  0  0  0  0  0  0  0  0  0
   -2.1621  -26.5391   22.8310 C   0  0  0  0  0  0  0  0  0  0  0  0
   -3.4774  -26.2332   23.4707 N   0  0  0  0  0  0  0  0  0  0  0  0
   -4.7166  -25.3938   22.9452 C   0  0  0  0  0  0  0  0  0  0  0  0
   -6.1663  -24.3569   23.1432 C   0  0  0  0  0  0  0  0  0  0  0  0
   -7.6317  -23.8746   23.9736 C   0  0  0  0  0  0  0  0  0  0  0  0
   -9.3034  -23.8211   23.8452 N   0  0  0  0  0  0  0  0  0  0  0  0
   -9.9815  -22.7125   23.1574 C   0  0  0  0  0  0  0  0  0  0  0  0
  -11.2667  -22.5590   23.4498 N   0  0  0  0  0  0  0  0  0  0  0  0
  -11.6017  -23.4598   24.4604 C   0  0  0  0  0  0  0  0  0  0  0  0
  -12.8703  -23.8214   24.9303 C   0  0  0  0  0  0  0  0  0  0  0  0
  -12.9766  -24.7191   25.9837 C   0  0  0  0  0  0  0  0  0  0  0  0
  -11.8484  -25.0669   26.6962 C   0  0  0  0  0  0  0  0  0  0  0  0
  -10.5816  -24.7145   26.2279 C   0  0  0  0  0  0  0  0  0  0  0  0
  -10.4408  -24.1455   24.9266 C   0  0  0  0  0  0  0  0  0  0  0  0
   -1.4638  -27.1422   23.9556 N   0  0  0  0  0  0  0  0  0  0  0  0
   -1.6363  -28.6649   23.9236 C   0  0  0  0  0  0  0  0  0  0  0  0
   -1.1702  -29.3585   22.5757 C   0  0  0  0  0  0  0  0  0  0  0  0
    0.1033  -28.7844   22.0382 C   0  0  0  0  0  0  0  0  0  0  0  0
    0.6806  -27.8755   22.8215 C   0  0  0  0  0  0  0  0  0  0  0  0
    1.8425  -27.2927   22.4663 F   0  0  0  0  0  0  0  0  0  0  0  0
   -0.0057  -27.5266   24.1205 C   0  0  0  0  0  0  0  0  0  0  0  0
   -3.4500  -26.5107   24.4153 H   0  0  0  0  0  0  0  0  0  0  0  0
   -5.2811  -26.2646   22.6320 H   0  0  0  0  0  0  0  0  0  0  0  0
   -4.6443  -25.0234   23.9640 H   0  0  0  0  0  0  0  0  0  0  0  0
   -6.4911  -24.4012   22.1256 H   0  0  0  0  0  0  0  0  0  0  0  0
   -5.6598  -23.4179   23.2887 H   0  0  0  0  0  0  0  0  0  0  0  0
   -7.6271  -22.9021   23.4926 H   0  0  0  0  0  0  0  0  0  0  0  0
   -7.3376  -23.7247   25.0036 H   0  0  0  0  0  0  0  0  0  0  0  0
   -9.4853  -22.0475   22.4802 H   0  0  0  0  0  0  0  0  0  0  0  0
  -13.7536  -23.3941   24.4685 H   0  0  0  0  0  0  0  0  0  0  0  0
  -13.9562  -25.0424   26.3127 H   0  0  0  0  0  0  0  0  0  0  0  0
  -11.9491  -25.5927   27.6427 H   0  0  0  0  0  0  0  0  0  0  0  0
   -9.7659  -24.9014   26.9135 H   0  0  0  0  0  0  0  0  0  0  0  0
   -1.3084  -29.1925   24.8346 H   0  0  0  0  0  0  0  0  0  0  0  0
   -2.7261  -28.8191   23.9527 H   0  0  0  0  0  0  0  0  0  0  0  0
   -1.9529  -29.2697   21.8237 H   0  0  0  0  0  0  0  0  0  0  0  0
   -1.0460  -30.4315   22.7623 H   0  0  0  0  0  0  0  0  0  0  0  0
    0.5184  -29.0851   21.0855 H   0  0  0  0  0  0  0  0  0  0  0  0
    0.4339  -26.5520   24.3843 H   0  0  0  0  0  0  0  0  0  0  0  0
    0.2720  -28.1382   24.9928 H   0  0  0  0  0  0  0  0  0  0  0  0
  1  2  2  0
  2  3  1  0
  3  4  1  0
  4  5  1  0
  5  6  1  0
  6  7  1  0
  7  8  1  0
  8  9  2  0
  9 10  1  0
 10 11  2  0
 11 12  1  0
 12 13  2  0
 13 14  1  0
 14 15  2  0
  2 16  1  0
 16 17  1  0
 17 18  1  0
 18 19  1  0
 19 20  2  0
 20 21  1  0
 20 22  1  0
 15  7  1  0
 22 16  1  0
 15 10  1  0
  3 23  1  0
  4 24  1  0
  4 25  1  0
  5 26  1  0
  5 27  1  0
  6 28  1  0
  6 29  1  0
  8 30  1  0
 11 31  1  0
 12 32  1  0
 13 33  1  0
 14 34  1  0
 17 35  1  0
 17 36  1  0
 18 37  1  0
 18 38  1  0
 19 39  1  0
 22 40  1  0
 22 41  1  0
M  END
>  <Energy>  (1455) 
280.58749320630426

>  <compound_id>  (1455) 
17826

>  <target_id>  (1455) 
1

>  <reference_id>  (1455) 
94

>  <inspiration_ids>  (1455) 
[85, 94]

>  <energy_score>  (1455) 
308.3802339246256

>  <distance_score>  (1455) 
13.07297444617185

>  <path>  (1455) 
/opt/xchem-fragalysis-2/maxwin/BulkDock/SCRATCH/511014/C17826-P94/C17826-P94.minimised.mol

>  <scratch_subdir>  (1455) 
/opt/xchem-fragalysis-2/maxwin/BulkDock/SCRATCH/511014/C17826-P94

>  <fragmenstein_runtime>  (1455) 
22.60900115966797

>  <fragmenstein_outcome>  (1455) 
too moved

>  <fragmenstein_mode>  (1455) 
expansion

>  <fragmenstein_error>  (1455) 


$$$$
C17829-P85
     RDKit          3D

 36 38  0  0  0  0  0  0  0  0999 V2000
   -7.2017  -18.8405   23.3927 O   0  0  0  0  0  0  0  0  0  0  0  0
   -7.3476  -19.6397   22.4853 C   0  0  0  0  0  0  0  0  0  0  0  0
   -7.7235  -21.4856   23.0578 C   0  0  0  0  0  0  0  0  0  0  0  0
   -7.9406  -23.2819   24.0238 C   0  0  0  0  0  0  0  0  0  0  0  0
   -8.1186  -23.6391   25.8896 N   0  0  0  0  0  0  0  0  0  0  0  0
   -7.8539  -22.8556   27.0580 C   0  0  0  0  0  0  0  0  0  0  0  0
   -8.6916  -23.0904   28.0337 N   0  0  0  0  0  0  0  0  0  0  0  0
   -9.7224  -23.9490   27.7231 C   0  0  0  0  0  0  0  0  0  0  0  0
  -10.8904  -24.3704   28.4447 C   0  0  0  0  0  0  0  0  0  0  0  0
  -11.8693  -25.1499   27.8615 C   0  0  0  0  0  0  0  0  0  0  0  0
  -11.7962  -25.2971   26.5120 C   0  0  0  0  0  0  0  0  0  0  0  0
  -10.6813  -24.7754   25.8447 C   0  0  0  0  0  0  0  0  0  0  0  0
   -9.5054  -24.3482   26.4302 C   0  0  0  0  0  0  0  0  0  0  0  0
   -7.1510  -19.4163   20.9088 N   0  0  0  0  0  0  0  0  0  0  0  0
   -5.8420  -19.7121   20.5226 C   0  0  0  0  0  0  0  0  0  0  0  0
   -5.8377  -19.7944   19.0550 C   0  0  0  0  0  0  0  0  0  0  0  0
   -5.0935  -18.9631   18.3987 C   0  0  0  0  0  0  0  0  0  0  0  0
   -5.3328  -17.8176   19.1940 C   0  0  0  0  0  0  0  0  0  0  0  0
   -6.7974  -17.9814   20.0152 C   0  0  0  0  0  0  0  0  0  0  0  0
   -6.6087  -21.1954   23.1949 H   0  0  0  0  0  0  0  0  0  0  0  0
   -6.8048  -22.1760   22.9530 H   0  0  0  0  0  0  0  0  0  0  0  0
   -6.9350  -23.7290   23.9520 H   0  0  0  0  0  0  0  0  0  0  0  0
   -8.8028  -23.6973   23.6390 H   0  0  0  0  0  0  0  0  0  0  0  0
   -6.9473  -22.3070   27.2434 H   0  0  0  0  0  0  0  0  0  0  0  0
  -11.0996  -24.0520   29.4598 H   0  0  0  0  0  0  0  0  0  0  0  0
  -12.7431  -25.4521   28.4273 H   0  0  0  0  0  0  0  0  0  0  0  0
  -12.6627  -25.6575   25.9689 H   0  0  0  0  0  0  0  0  0  0  0  0
  -10.8000  -24.3370   24.8937 H   0  0  0  0  0  0  0  0  0  0  0  0
   -5.4031  -18.9223   21.0073 H   0  0  0  0  0  0  0  0  0  0  0  0
   -5.3124  -20.6136   20.8358 H   0  0  0  0  0  0  0  0  0  0  0  0
   -6.5842  -20.2994   18.4987 H   0  0  0  0  0  0  0  0  0  0  0  0
   -4.7616  -18.8947   17.3933 H   0  0  0  0  0  0  0  0  0  0  0  0
   -5.2278  -17.0436   18.4501 H   0  0  0  0  0  0  0  0  0  0  0  0
   -4.5631  -17.7016   19.9380 H   0  0  0  0  0  0  0  0  0  0  0  0
   -7.3418  -18.0023   19.0741 H   0  0  0  0  0  0  0  0  0  0  0  0
   -6.9375  -17.1654   20.7316 H   0  0  0  0  0  0  0  0  0  0  0  0
  1  2  2  0
  2  3  1  0
  3  4  1  0
  4  5  1  0
  5  6  1  0
  6  7  2  0
  7  8  1  0
  8  9  2  0
  9 10  1  0
 10 11  2  0
 11 12  1  0
 12 13  2  0
  2 14  1  0
 14 15  1  0
 15 16  1  0
 16 17  2  0
 17 18  1  0
 18 19  1  0
 13  5  1  0
 19 14  1  0
 13  8  1  0
  3 20  1  0
  3 21  1  0
  4 22  1  0
  4 23  1  0
  6 24  1  0
  9 25  1  0
 10 26  1  0
 11 27  1  0
 12 28  1  0
 15 29  1  0
 15 30  1  0
 16 31  1  0
 17 32  1  0
 18 33  1  0
 18 34  1  0
 19 35  1  0
 19 36  1  0
M  END
>  <Energy>  (1456) 
579.48188096315971

>  <compound_id>  (1456) 
17829

>  <target_id>  (1456) 
1

>  <reference_id>  (1456) 
85

>  <inspiration_ids>  (1456) 
[85, 94]

>  <energy_score>  (1456) 
564.4920865324721

>  <distance_score>  (1456) 
10.2441765891386

>  <path>  (1456) 
/opt/xchem-fragalysis-2/maxwin/BulkDock/SCRATCH/511014/C17829-P85/C17829-P85.minimised.mol

>  <scratch_subdir>  (1456) 
/opt/xchem-fragalysis-2/maxwin/BulkDock/SCRATCH/511014/C17829-P85

>  <fragmenstein_runtime>  (1456) 
9.4508216381073

>  <fragmenstein_outcome>  (1456) 
too moved

>  <fragmenstein_mode>  (1456) 
expansion

>  <fragmenstein_error>  (1456) 


$$$$
C17829-P94
     RDKit          3D

 36 38  0  0  0  0  0  0  0  0999 V2000
  -11.7898  -16.2532   21.3092 O   0  0  0  0  0  0  0  0  0  0  0  0
  -11.7268  -16.3684   22.5043 C   0  0  0  0  0  0  0  0  0  0  0  0
  -12.7125  -17.3189   23.2208 C   0  0  0  0  0  0  0  0  0  0  0  0
  -12.6028  -18.8500   22.8986 C   0  0  0  0  0  0  0  0  0  0  0  0
  -13.5815  -19.7013   23.6110 N   0  0  0  0  0  0  0  0  0  0  0  0
  -14.9238  -19.3051   23.5411 C   0  0  0  0  0  0  0  0  0  0  0  0
  -15.3967  -18.6706   24.6004 N   0  0  0  0  0  0  0  0  0  0  0  0
  -14.6410  -19.0791   25.6602 C   0  0  0  0  0  0  0  0  0  0  0  0
  -14.8652  -18.5243   27.5094 C   0  0  0  0  0  0  0  0  0  0  0  0
  -13.8610  -19.7886   28.9146 C   0  0  0  0  0  0  0  0  0  0  0  0
  -12.4143  -20.8426   28.1331 C   0  0  0  0  0  0  0  0  0  0  0  0
  -11.9962  -20.8891   26.1985 C   0  0  0  0  0  0  0  0  0  0  0  0
  -13.3854  -20.2679   24.8925 C   0  0  0  0  0  0  0  0  0  0  0  0
  -10.8451  -15.7490   23.4581 N   0  0  0  0  0  0  0  0  0  0  0  0
   -9.6001  -16.6188   23.6744 C   0  0  0  0  0  0  0  0  0  0  0  0
   -8.4161  -16.7788   22.7722 C   0  0  0  0  0  0  0  0  0  0  0  0
   -8.0481  -15.7991   21.9625 C   0  0  0  0  0  0  0  0  0  0  0  0
   -8.9262  -14.6124   21.9741 C   0  0  0  0  0  0  0  0  0  0  0  0
   -9.7866  -14.6648   23.2773 C   0  0  0  0  0  0  0  0  0  0  0  0
  -12.6314  -17.1402   24.2934 H   0  0  0  0  0  0  0  0  0  0  0  0
  -13.7121  -16.9588   22.9441 H   0  0  0  0  0  0  0  0  0  0  0  0
  -12.7903  -19.0182   21.8313 H   0  0  0  0  0  0  0  0  0  0  0  0
  -11.6132  -19.2525   23.1119 H   0  0  0  0  0  0  0  0  0  0  0  0
  -15.4108  -19.2863   22.5729 H   0  0  0  0  0  0  0  0  0  0  0  0
  -15.3897  -17.5724   27.7592 H   0  0  0  0  0  0  0  0  0  0  0  0
  -14.5571  -20.0852   29.7688 H   0  0  0  0  0  0  0  0  0  0  0  0
  -12.0438  -21.6946   28.7176 H   0  0  0  0  0  0  0  0  0  0  0  0
  -11.7238  -21.9385   25.9390 H   0  0  0  0  0  0  0  0  0  0  0  0
  -10.0203  -17.6213   23.6402 H   0  0  0  0  0  0  0  0  0  0  0  0
   -9.2750  -16.4998   24.7205 H   0  0  0  0  0  0  0  0  0  0  0  0
   -7.7996  -17.6708   22.8540 H   0  0  0  0  0  0  0  0  0  0  0  0
   -7.1346  -15.8936   21.4054 H   0  0  0  0  0  0  0  0  0  0  0  0
   -9.5593  -14.5931   21.0812 H   0  0  0  0  0  0  0  0  0  0  0  0
   -8.3212  -13.6995   21.9854 H   0  0  0  0  0  0  0  0  0  0  0  0
  -10.4176  -13.7655   23.2035 H   0  0  0  0  0  0  0  0  0  0  0  0
   -9.2080  -14.4717   24.1982 H   0  0  0  0  0  0  0  0  0  0  0  0
  1  2  2  0
  2  3  1  0
  3  4  1  0
  4  5  1  0
  5  6  1  0
  6  7  2  0
  7  8  1  0
  8  9  2  0
  9 10  1  0
 10 11  2  0
 11 12  1  0
 12 13  2  0
  2 14  1  0
 14 15  1  0
 15 16  1  0
 16 17  2  0
 17 18  1  0
 18 19  1  0
 13  5  1  0
 19 14  1  0
 13  8  1  0
  3 20  1  0
  3 21  1  0
  4 22  1  0
  4 23  1  0
  6 24  1  0
  9 25  1  0
 10 26  1  0
 11 27  1  0
 12 28  1  0
 15 29  1  0
 15 30  1  0
 16 31  1  0
 17 32  1  0
 18 33  1  0
 18 34  1  0
 19 35  1  0
 19 36  1  0
M  END
>  <Energy>  (1457) 
787.10455991454364

>  <compound_id>  (1457) 
17829

>  <target_id>  (1457) 
1

>  <reference_id>  (1457) 
94

>  <inspiration_ids>  (1457) 
[85, 94]

>  <energy_score>  (1457) 
772.1147654838618

>  <distance_score>  (1457) 
13.692729617450372

>  <path>  (1457) 
/opt/xchem-fragalysis-2/maxwin/BulkDock/SCRATCH/511014/C17829-P94/C17829-P94.minimised.mol

>  <scratch_subdir>  (1457) 
/opt/xchem-fragalysis-2/maxwin/BulkDock/SCRATCH/511014/C17829-P94

>  <fragmenstein_runtime>  (1457) 
19.15872836112976

>  <fragmenstein_outcome>  (1457) 
too moved

>  <fragmenstein_mode>  (1457) 
expansion

>  <fragmenstein_error>  (1457) 


$$$$
C17831-P85
     RDKit          3D

 40 42  0  0  0  0  0  0  0  0999 V2000
   -4.3398  -19.9337   12.3553 O   0  0  0  0  0  0  0  0  0  0  0  0
   -3.4388  -20.6698   12.7271 C   0  0  0  0  0  0  0  0  0  0  0  0
   -3.2395  -22.7093   12.5647 C   0  0  0  0  0  0  0  0  0  0  0  0
   -3.0818  -24.0253   13.7643 C   0  0  0  0  0  0  0  0  0  0  0  0
   -2.3246  -25.2225   14.2400 N   0  0  0  0  0  0  0  0  0  0  0  0
   -2.9216  -26.4755   13.9816 C   0  0  0  0  0  0  0  0  0  0  0  0
   -2.9528  -27.2939   15.0061 N   0  0  0  0  0  0  0  0  0  0  0  0
   -2.1486  -26.7200   15.9349 C   0  0  0  0  0  0  0  0  0  0  0  0
   -1.7702  -27.2554   17.1862 C   0  0  0  0  0  0  0  0  0  0  0  0
   -0.9420  -26.5229   18.0348 C   0  0  0  0  0  0  0  0  0  0  0  0
   -0.4451  -25.3036   17.6014 C   0  0  0  0  0  0  0  0  0  0  0  0
   -0.7661  -24.7846   16.3305 C   0  0  0  0  0  0  0  0  0  0  0  0
   -1.6665  -25.4748   15.4885 C   0  0  0  0  0  0  0  0  0  0  0  0
   -1.7975  -20.2666   13.7158 N   0  0  0  0  0  0  0  0  0  0  0  0
   -1.3011  -18.7608   14.4236 C   0  0  0  0  0  0  0  0  0  0  0  0
    0.5039  -18.5110   15.1919 C   0  0  0  0  0  0  0  0  0  0  0  0
    1.6328  -19.3403   14.6635 C   0  0  0  0  0  0  0  0  0  0  0  0
    1.2411  -20.0991   13.6584 C   0  0  0  0  0  0  0  0  0  0  0  0
   -0.0703  -19.8089   12.8581 C   0  0  0  0  0  0  0  0  0  0  0  0
    1.0004  -19.9424   11.3884 C   0  0  0  0  0  0  0  0  0  0  0  0
    2.0150  -20.9411   11.2149 O   0  0  0  0  0  0  0  0  0  0  0  0
   -3.9764  -23.0549   11.8034 H   0  0  0  0  0  0  0  0  0  0  0  0
   -2.3220  -23.1361   12.2688 H   0  0  0  0  0  0  0  0  0  0  0  0
   -3.4130  -23.5691   14.6422 H   0  0  0  0  0  0  0  0  0  0  0  0
   -3.8499  -24.5960   13.2304 H   0  0  0  0  0  0  0  0  0  0  0  0
   -3.4125  -26.6639   13.0341 H   0  0  0  0  0  0  0  0  0  0  0  0
   -2.1444  -28.2316   17.4762 H   0  0  0  0  0  0  0  0  0  0  0  0
   -0.6563  -26.9299   18.9995 H   0  0  0  0  0  0  0  0  0  0  0  0
    0.2626  -24.7548   18.2174 H   0  0  0  0  0  0  0  0  0  0  0  0
   -0.2691  -23.8766   16.0230 H   0  0  0  0  0  0  0  0  0  0  0  0
   -2.1328  -18.0575   14.3223 H   0  0  0  0  0  0  0  0  0  0  0  0
   -1.7154  -18.7025   15.3757 H   0  0  0  0  0  0  0  0  0  0  0  0
    0.3723  -18.7038   16.2863 H   0  0  0  0  0  0  0  0  0  0  0  0
    1.1066  -17.6434   15.3302 H   0  0  0  0  0  0  0  0  0  0  0  0
    2.5617  -19.4741   15.2002 H   0  0  0  0  0  0  0  0  0  0  0  0
    1.9323  -20.8917   13.3929 H   0  0  0  0  0  0  0  0  0  0  0  0
   -0.1580  -18.8627   12.3885 H   0  0  0  0  0  0  0  0  0  0  0  0
    1.6048  -19.0185   11.4590 H   0  0  0  0  0  0  0  0  0  0  0  0
    0.5792  -19.8118   10.4020 H   0  0  0  0  0  0  0  0  0  0  0  0
    1.5842  -21.7997   11.3995 H   0  0  0  0  0  0  0  0  0  0  0  0
  1  2  2  0
  2  3  1  0
  3  4  1  0
  4  5  1  0
  5  6  1  0
  6  7  2  0
  7  8  1  0
  8  9  2  0
  9 10  1  0
 10 11  2  0
 11 12  1  0
 12 13  2  0
  2 14  1  0
 14 15  1  0
 15 16  1  0
 16 17  1  0
 17 18  2  0
 18 19  1  0
 19 20  1  0
 20 21  1  0
 13  5  1  0
 19 14  1  0
 13  8  1  0
  3 22  1  0
  3 23  1  0
  4 24  1  0
  4 25  1  0
  6 26  1  0
  9 27  1  0
 10 28  1  0
 11 29  1  0
 12 30  1  0
 15 31  1  0
 15 32  1  0
 16 33  1  0
 16 34  1  0
 17 35  1  0
 18 36  1  0
 19 37  1  0
 20 38  1  0
 20 39  1  0
 21 40  1  0
M  END
>  <Energy>  (1458) 
634.05328779260549

>  <compound_id>  (1458) 
17831

>  <target_id>  (1458) 
1

>  <reference_id>  (1458) 
85

>  <inspiration_ids>  (1458) 
[85, 94]

>  <energy_score>  (1458) 
585.2388060786213

>  <distance_score>  (1458) 
15.537830722489552

>  <path>  (1458) 
/opt/xchem-fragalysis-2/maxwin/BulkDock/SCRATCH/511014/C17831-P85/C17831-P85.minimised.mol

>  <scratch_subdir>  (1458) 
/opt/xchem-fragalysis-2/maxwin/BulkDock/SCRATCH/511014/C17831-P85

>  <fragmenstein_runtime>  (1458) 
10.136507511138916

>  <fragmenstein_outcome>  (1458) 
too moved

>  <fragmenstein_mode>  (1458) 
expansion

>  <fragmenstein_error>  (1458) 


$$$$
C17831-P94
     RDKit          3D

 40 42  0  0  0  0  0  0  0  0999 V2000
   -7.2115  -20.4001   23.2430 O   0  0  0  0  0  0  0  0  0  0  0  0
   -7.9289  -20.2748   22.2928 C   0  0  0  0  0  0  0  0  0  0  0  0
   -9.8600  -20.8964   22.6810 C   0  0  0  0  0  0  0  0  0  0  0  0
  -11.1553  -22.0107   23.6031 C   0  0  0  0  0  0  0  0  0  0  0  0
  -11.3706  -23.2354   24.7115 N   0  0  0  0  0  0  0  0  0  0  0  0
  -10.5153  -24.3142   24.7394 C   0  0  0  0  0  0  0  0  0  0  0  0
  -11.0296  -25.3677   25.3251 N   0  0  0  0  0  0  0  0  0  0  0  0
  -11.5452  -24.7654   26.4034 C   0  0  0  0  0  0  0  0  0  0  0  0
  -11.6297  -25.3213   27.6947 C   0  0  0  0  0  0  0  0  0  0  0  0
  -11.6416  -24.4618   28.7869 C   0  0  0  0  0  0  0  0  0  0  0  0
  -11.6371  -23.0930   28.5767 C   0  0  0  0  0  0  0  0  0  0  0  0
  -11.6464  -22.5641   27.2775 C   0  0  0  0  0  0  0  0  0  0  0  0
  -11.6674  -23.3847   26.1365 C   0  0  0  0  0  0  0  0  0  0  0  0
   -7.0988  -19.7801   20.7666 N   0  0  0  0  0  0  0  0  0  0  0  0
   -5.7367  -19.6176   20.4564 C   0  0  0  0  0  0  0  0  0  0  0  0
   -4.6296  -19.2587   19.4826 C   0  0  0  0  0  0  0  0  0  0  0  0
   -4.4801  -17.7901   19.8134 C   0  0  0  0  0  0  0  0  0  0  0  0
   -5.5822  -17.3752   20.5863 C   0  0  0  0  0  0  0  0  0  0  0  0
   -6.9564  -18.1820   20.4603 C   0  0  0  0  0  0  0  0  0  0  0  0
   -6.8451  -18.0799   18.7587 C   0  0  0  0  0  0  0  0  0  0  0  0
   -5.6234  -17.5538   18.2207 O   0  0  0  0  0  0  0  0  0  0  0  0
  -10.4518  -20.0409   23.0553 H   0  0  0  0  0  0  0  0  0  0  0  0
  -10.1449  -21.3067   21.6946 H   0  0  0  0  0  0  0  0  0  0  0  0
  -11.8421  -21.2732   24.0522 H   0  0  0  0  0  0  0  0  0  0  0  0
  -11.7326  -22.4423   22.7720 H   0  0  0  0  0  0  0  0  0  0  0  0
   -9.5946  -24.2721   24.1731 H   0  0  0  0  0  0  0  0  0  0  0  0
  -11.5124  -26.3892   27.8365 H   0  0  0  0  0  0  0  0  0  0  0  0
  -11.6294  -24.8553   29.8002 H   0  0  0  0  0  0  0  0  0  0  0  0
  -11.6250  -22.4185   29.4293 H   0  0  0  0  0  0  0  0  0  0  0  0
  -11.5337  -21.5090   27.1690 H   0  0  0  0  0  0  0  0  0  0  0  0
   -5.3849  -20.6450   20.5849 H   0  0  0  0  0  0  0  0  0  0  0  0
   -5.6392  -19.1828   21.4217 H   0  0  0  0  0  0  0  0  0  0  0  0
   -3.6989  -19.7444   19.7689 H   0  0  0  0  0  0  0  0  0  0  0  0
   -4.7995  -19.6197   18.4765 H   0  0  0  0  0  0  0  0  0  0  0  0
   -3.4905  -17.3344   19.7489 H   0  0  0  0  0  0  0  0  0  0  0  0
   -5.5678  -16.6000   21.3330 H   0  0  0  0  0  0  0  0  0  0  0  0
   -7.6037  -17.6613   21.1854 H   0  0  0  0  0  0  0  0  0  0  0  0
   -7.5371  -17.4010   18.2550 H   0  0  0  0  0  0  0  0  0  0  0  0
   -6.9907  -19.0854   18.3802 H   0  0  0  0  0  0  0  0  0  0  0  0
   -5.0229  -18.1449   17.7356 H   0  0  0  0  0  0  0  0  0  0  0  0
  1  2  2  0
  2  3  1  0
  3  4  1  0
  4  5  1  0
  5  6  1  0
  6  7  2  0
  7  8  1  0
  8  9  2  0
  9 10  1  0
 10 11  2  0
 11 12  1  0
 12 13  2  0
  2 14  1  0
 14 15  1  0
 15 16  1  0
 16 17  1  0
 17 18  2  0
 18 19  1  0
 19 20  1  0
 20 21  1  0
 13  5  1  0
 19 14  1  0
 13  8  1  0
  3 22  1  0
  3 23  1  0
  4 24  1  0
  4 25  1  0
  6 26  1  0
  9 27  1  0
 10 28  1  0
 11 29  1  0
 12 30  1  0
 15 31  1  0
 15 32  1  0
 16 33  1  0
 16 34  1  0
 17 35  1  0
 18 36  1  0
 19 37  1  0
 20 38  1  0
 20 39  1  0
 21 40  1  0
M  END
>  <Energy>  (1459) 
632.08241590684429

>  <compound_id>  (1459) 
17831

>  <target_id>  (1459) 
1

>  <reference_id>  (1459) 
94

>  <inspiration_ids>  (1459) 
[85, 94]

>  <energy_score>  (1459) 
583.2679341928724

>  <distance_score>  (1459) 
10.4794557351145

>  <path>  (1459) 
/opt/xchem-fragalysis-2/maxwin/BulkDock/SCRATCH/511014/C17831-P94/C17831-P94.minimised.mol

>  <scratch_subdir>  (1459) 
/opt/xchem-fragalysis-2/maxwin/BulkDock/SCRATCH/511014/C17831-P94

>  <fragmenstein_runtime>  (1459) 
15.227158546447754

>  <fragmenstein_outcome>  (1459) 
too moved

>  <fragmenstein_mode>  (1459) 
expansion

>  <fragmenstein_error>  (1459) 


$$$$
C17825-P85
     RDKit          3D

 36 38  0  0  0  0  0  0  0  0999 V2000
   -4.5216  -20.1613   20.0238 O   0  0  0  0  0  0  0  0  0  0  0  0
   -4.2846  -21.4712   20.0615 C   0  0  0  0  0  0  0  0  0  0  0  0
   -5.1711  -22.2064   21.8034 C   0  0  0  0  0  0  0  0  0  0  0  0
   -6.3222  -23.4443   23.1796 C   0  0  0  0  0  0  0  0  0  0  0  0
   -7.6428  -23.6707   24.6323 N   0  0  0  0  0  0  0  0  0  0  0  0
   -7.1539  -23.0486   26.0590 C   0  0  0  0  0  0  0  0  0  0  0  0
   -7.9582  -22.9740   27.1123 N   0  0  0  0  0  0  0  0  0  0  0  0
   -8.9928  -23.9021   26.9470 C   0  0  0  0  0  0  0  0  0  0  0  0
  -10.0911  -24.1451   27.8754 C   0  0  0  0  0  0  0  0  0  0  0  0
  -11.4233  -24.1284   27.5809 C   0  0  0  0  0  0  0  0  0  0  0  0
  -11.6587  -24.3134   26.2820 C   0  0  0  0  0  0  0  0  0  0  0  0
  -10.5284  -24.7301   25.5119 C   0  0  0  0  0  0  0  0  0  0  0  0
   -8.9780  -24.4986   25.5844 C   0  0  0  0  0  0  0  0  0  0  0  0
   -3.3517  -22.5957   18.5679 N   0  0  0  0  0  0  0  0  0  0  0  0
   -2.7170  -22.0967   16.6227 C   0  0  0  0  0  0  0  0  0  0  0  0
   -2.2061  -21.0837   14.5287 C   0  0  0  0  0  0  0  0  0  0  0  0
    0.0311  -21.8252   15.1902 C   0  0  0  0  0  0  0  0  0  0  0  0
   -0.0520  -22.5887   16.7493 C   0  0  0  0  0  0  0  0  0  0  0  0
    1.2093  -22.9621   17.1304 F   0  0  0  0  0  0  0  0  0  0  0  0
   -1.2954  -23.1165   18.2759 C   0  0  0  0  0  0  0  0  0  0  0  0
   -5.6828  -21.4677   22.4040 H   0  0  0  0  0  0  0  0  0  0  0  0
   -4.3726  -21.5077   22.1512 H   0  0  0  0  0  0  0  0  0  0  0  0
   -5.6927  -23.4746   24.0673 H   0  0  0  0  0  0  0  0  0  0  0  0
   -6.1367  -24.4819   22.8548 H   0  0  0  0  0  0  0  0  0  0  0  0
   -6.0904  -22.7599   26.0244 H   0  0  0  0  0  0  0  0  0  0  0  0
   -9.9035  -24.7725   28.7422 H   0  0  0  0  0  0  0  0  0  0  0  0
  -12.1950  -24.2103   28.3344 H   0  0  0  0  0  0  0  0  0  0  0  0
  -12.6757  -24.5535   25.9816 H   0  0  0  0  0  0  0  0  0  0  0  0
  -10.7604  -25.8351   25.4640 H   0  0  0  0  0  0  0  0  0  0  0  0
   -2.0726  -23.0434   16.7404 H   0  0  0  0  0  0  0  0  0  0  0  0
   -3.7268  -22.4167   16.1030 H   0  0  0  0  0  0  0  0  0  0  0  0
   -1.4422  -20.4132   13.8572 H   0  0  0  0  0  0  0  0  0  0  0  0
   -2.0349  -19.7810   14.6908 H   0  0  0  0  0  0  0  0  0  0  0  0
    0.9846  -21.6261   14.6481 H   0  0  0  0  0  0  0  0  0  0  0  0
   -1.3344  -24.2149   18.1941 H   0  0  0  0  0  0  0  0  0  0  0  0
   -0.6958  -22.6600   19.0926 H   0  0  0  0  0  0  0  0  0  0  0  0
  1  2  2  0
  2  3  1  0
  3  4  1  0
  4  5  1  0
  5  6  1  0
  6  7  2  0
  7  8  1  0
  8  9  2  0
  9 10  1  0
 10 11  2  0
 11 12  1  0
 12 13  2  0
  2 14  1  0
 14 15  1  0
 15 16  1  0
 16 17  1  0
 17 18  2  0
 18 19  1  0
 18 20  1  0
 13  5  1  0
 20 14  1  0
 13  8  1  0
  3 21  1  0
  3 22  1  0
  4 23  1  0
  4 24  1  0
  6 25  1  0
  9 26  1  0
 10 27  1  0
 11 28  1  0
 12 29  1  0
 15 30  1  0
 15 31  1  0
 16 32  1  0
 16 33  1  0
 17 34  1  0
 20 35  1  0
 20 36  1  0
M  END
>  <Energy>  (1460) 
2171.9144028313372

>  <compound_id>  (1460) 
17825

>  <target_id>  (1460) 
1

>  <reference_id>  (1460) 
85

>  <inspiration_ids>  (1460) 
[85, 94]

>  <energy_score>  (1460) 
2150.4749586937555

>  <distance_score>  (1460) 
8.775726625443914

>  <path>  (1460) 
/opt/xchem-fragalysis-2/maxwin/BulkDock/SCRATCH/511014/C17825-P85/C17825-P85.minimised.mol

>  <scratch_subdir>  (1460) 
/opt/xchem-fragalysis-2/maxwin/BulkDock/SCRATCH/511014/C17825-P85

>  <fragmenstein_runtime>  (1460) 
5.747721433639526

>  <fragmenstein_outcome>  (1460) 
too moved

>  <fragmenstein_mode>  (1460) 
expansion

>  <fragmenstein_error>  (1460) 


$$$$
C17825-P94
     RDKit          3D

 36 38  0  0  0  0  0  0  0  0999 V2000
   -5.9720  -18.9220   20.1438 O   0  0  0  0  0  0  0  0  0  0  0  0
   -5.2824  -19.8675   19.8057 C   0  0  0  0  0  0  0  0  0  0  0  0
   -5.2525  -21.2269   21.2398 C   0  0  0  0  0  0  0  0  0  0  0  0
   -6.1280  -21.5142   23.1561 C   0  0  0  0  0  0  0  0  0  0  0  0
   -6.2168  -22.6199   24.6901 N   0  0  0  0  0  0  0  0  0  0  0  0
   -5.4603  -22.0131   25.8274 C   0  0  0  0  0  0  0  0  0  0  0  0
   -6.0157  -21.9760   27.0444 N   0  0  0  0  0  0  0  0  0  0  0  0
   -7.2060  -22.6571   27.0551 C   0  0  0  0  0  0  0  0  0  0  0  0
   -8.5406  -22.9125   28.0305 C   0  0  0  0  0  0  0  0  0  0  0  0
   -9.9534  -23.3563   27.9646 C   0  0  0  0  0  0  0  0  0  0  0  0
  -10.1560  -24.2000   26.9684 C   0  0  0  0  0  0  0  0  0  0  0  0
   -9.0581  -24.1001   26.0799 C   0  0  0  0  0  0  0  0  0  0  0  0
   -7.3650  -23.2914   25.8040 C   0  0  0  0  0  0  0  0  0  0  0  0
   -4.2795  -20.0773   18.3896 N   0  0  0  0  0  0  0  0  0  0  0  0
   -3.8270  -18.7731   17.0073 C   0  0  0  0  0  0  0  0  0  0  0  0
   -2.3498  -18.9809   15.5459 C   0  0  0  0  0  0  0  0  0  0  0  0
   -2.8383  -20.8438   14.5226 C   0  0  0  0  0  0  0  0  0  0  0  0
   -3.9226  -21.9385   15.4472 C   0  0  0  0  0  0  0  0  0  0  0  0
   -3.5324  -23.1175   14.8666 F   0  0  0  0  0  0  0  0  0  0  0  0
   -5.3827  -20.9657   16.8809 C   0  0  0  0  0  0  0  0  0  0  0  0
   -4.1863  -21.0504   21.2407 H   0  0  0  0  0  0  0  0  0  0  0  0
   -5.1408  -22.1566   20.7514 H   0  0  0  0  0  0  0  0  0  0  0  0
   -6.0470  -20.5797   23.7226 H   0  0  0  0  0  0  0  0  0  0  0  0
   -7.2125  -21.6345   23.1223 H   0  0  0  0  0  0  0  0  0  0  0  0
   -4.5599  -21.4736   25.5714 H   0  0  0  0  0  0  0  0  0  0  0  0
   -8.4632  -23.9165   28.5378 H   0  0  0  0  0  0  0  0  0  0  0  0
  -10.6941  -23.1545   28.7279 H   0  0  0  0  0  0  0  0  0  0  0  0
  -11.0993  -24.6689   26.7355 H   0  0  0  0  0  0  0  0  0  0  0  0
   -9.5289  -24.3015   25.0250 H   0  0  0  0  0  0  0  0  0  0  0  0
   -3.1988  -18.3016   17.7915 H   0  0  0  0  0  0  0  0  0  0  0  0
   -4.4168  -17.8658   16.9711 H   0  0  0  0  0  0  0  0  0  0  0  0
   -2.4585  -18.0613   14.8779 H   0  0  0  0  0  0  0  0  0  0  0  0
   -1.3487  -18.7339   15.7867 H   0  0  0  0  0  0  0  0  0  0  0  0
   -2.1147  -20.6454   13.7973 H   0  0  0  0  0  0  0  0  0  0  0  0
   -6.3103  -21.4346   17.2917 H   0  0  0  0  0  0  0  0  0  0  0  0
   -5.2349  -19.8770   16.9459 H   0  0  0  0  0  0  0  0  0  0  0  0
  1  2  2  0
  2  3  1  0
  3  4  1  0
  4  5  1  0
  5  6  1  0
  6  7  2  0
  7  8  1  0
  8  9  2  0
  9 10  1  0
 10 11  2  0
 11 12  1  0
 12 13  2  0
  2 14  1  0
 14 15  1  0
 15 16  1  0
 16 17  1  0
 17 18  2  0
 18 19  1  0
 18 20  1  0
 13  5  1  0
 20 14  1  0
 13  8  1  0
  3 21  1  0
  3 22  1  0
  4 23  1  0
  4 24  1  0
  6 25  1  0
  9 26  1  0
 10 27  1  0
 11 28  1  0
 12 29  1  0
 15 30  1  0
 15 31  1  0
 16 32  1  0
 16 33  1  0
 17 34  1  0
 20 35  1  0
 20 36  1  0
M  END
>  <Energy>  (1461) 
1335.4971002306713

>  <compound_id>  (1461) 
17825

>  <target_id>  (1461) 
1

>  <reference_id>  (1461) 
94

>  <inspiration_ids>  (1461) 
[85, 94]

>  <energy_score>  (1461) 
1314.0576560930804

>  <distance_score>  (1461) 
9.30761978720223

>  <path>  (1461) 
/opt/xchem-fragalysis-2/maxwin/BulkDock/SCRATCH/511014/C17825-P94/C17825-P94.minimised.mol

>  <scratch_subdir>  (1461) 
/opt/xchem-fragalysis-2/maxwin/BulkDock/SCRATCH/511014/C17825-P94

>  <fragmenstein_runtime>  (1461) 
18.673887252807617

>  <fragmenstein_outcome>  (1461) 
too moved

>  <fragmenstein_mode>  (1461) 
expansion

>  <fragmenstein_error>  (1461) 


$$$$
C17826-P85
     RDKit          3D

 41 43  0  0  0  0  0  0  0  0999 V2000
   -3.5765  -22.0096   18.7571 O   0  0  0  0  0  0  0  0  0  0  0  0
   -3.6842  -22.3428   17.6834 C   0  0  0  0  0  0  0  0  0  0  0  0
   -4.9279  -22.7554   16.8223 N   0  0  0  0  0  0  0  0  0  0  0  0
   -6.6579  -23.0362   17.2377 C   0  0  0  0  0  0  0  0  0  0  0  0
   -7.9249  -24.5998   16.5352 C   0  0  0  0  0  0  0  0  0  0  0  0
   -8.1549  -25.9439   17.7382 C   0  0  0  0  0  0  0  0  0  0  0  0
   -9.2546  -26.3708   18.6022 N   0  0  0  0  0  0  0  0  0  0  0  0
  -10.5981  -26.1262   18.5043 C   0  0  0  0  0  0  0  0  0  0  0  0
  -11.2892  -26.6691   19.4816 N   0  0  0  0  0  0  0  0  0  0  0  0
  -10.4078  -27.4869   20.1387 C   0  0  0  0  0  0  0  0  0  0  0  0
  -10.6287  -28.4132   21.1744 C   0  0  0  0  0  0  0  0  0  0  0  0
   -9.5620  -29.1476   21.6921 C   0  0  0  0  0  0  0  0  0  0  0  0
   -8.2992  -29.0173   21.1293 C   0  0  0  0  0  0  0  0  0  0  0  0
   -8.0691  -28.1484   20.0510 C   0  0  0  0  0  0  0  0  0  0  0  0
   -9.1327  -27.3508   19.5953 C   0  0  0  0  0  0  0  0  0  0  0  0
   -2.6396  -22.4798   16.3502 N   0  0  0  0  0  0  0  0  0  0  0  0
   -2.4617  -20.8711   14.7591 C   0  0  0  0  0  0  0  0  0  0  0  0
   -0.6982  -20.3028   13.6811 C   0  0  0  0  0  0  0  0  0  0  0  0
    1.0834  -20.9167   14.3249 C   0  0  0  0  0  0  0  0  0  0  0  0
    1.0794  -21.5411   15.7036 C   0  0  0  0  0  0  0  0  0  0  0  0
    2.2498  -21.8553   16.3058 F   0  0  0  0  0  0  0  0  0  0  0  0
   -0.5266  -22.2156   16.5740 C   0  0  0  0  0  0  0  0  0  0  0  0
   -4.6474  -22.9083   15.8981 H   0  0  0  0  0  0  0  0  0  0  0  0
   -6.0849  -23.6469   17.6587 H   0  0  0  0  0  0  0  0  0  0  0  0
   -7.0356  -23.7417   18.0251 H   0  0  0  0  0  0  0  0  0  0  0  0
   -8.8776  -24.2834   16.0530 H   0  0  0  0  0  0  0  0  0  0  0  0
   -7.5971  -25.3262   15.7924 H   0  0  0  0  0  0  0  0  0  0  0  0
   -7.9954  -26.8354   17.1108 H   0  0  0  0  0  0  0  0  0  0  0  0
   -7.2890  -25.8981   18.3915 H   0  0  0  0  0  0  0  0  0  0  0  0
  -11.0434  -25.5555   17.6992 H   0  0  0  0  0  0  0  0  0  0  0  0
  -11.6285  -28.5533   21.5647 H   0  0  0  0  0  0  0  0  0  0  0  0
   -9.7318  -29.8375   22.5129 H   0  0  0  0  0  0  0  0  0  0  0  0
   -7.4752  -29.6117   21.5178 H   0  0  0  0  0  0  0  0  0  0  0  0
   -7.0766  -28.0742   19.6191 H   0  0  0  0  0  0  0  0  0  0  0  0
   -2.1469  -19.5678   15.0116 H   0  0  0  0  0  0  0  0  0  0  0  0
   -3.2216  -21.3848   14.0910 H   0  0  0  0  0  0  0  0  0  0  0  0
   -0.3920  -19.9495   12.6906 H   0  0  0  0  0  0  0  0  0  0  0  0
   -0.7653  -19.2421   13.9340 H   0  0  0  0  0  0  0  0  0  0  0  0
    1.9513  -20.5480   13.7935 H   0  0  0  0  0  0  0  0  0  0  0  0
   -0.3183  -23.3274   16.5243 H   0  0  0  0  0  0  0  0  0  0  0  0
   -0.2341  -22.2644   17.6426 H   0  0  0  0  0  0  0  0  0  0  0  0
  1  2  2  0
  2  3  1  0
  3  4  1  0
  4  5  1  0
  5  6  1  0
  6  7  1  0
  7  8  1  0
  8  9  2  0
  9 10  1  0
 10 11  2  0
 11 12  1  0
 12 13  2  0
 13 14  1  0
 14 15  2  0
  2 16  1  0
 16 17  1  0
 17 18  1  0
 18 19  1  0
 19 20  2  0
 20 21  1  0
 20 22  1  0
 15  7  1  0
 22 16  1  0
 15 10  1  0
  3 23  1  0
  4 24  1  0
  4 25  1  0
  5 26  1  0
  5 27  1  0
  6 28  1  0
  6 29  1  0
  8 30  1  0
 11 31  1  0
 12 32  1  0
 13 33  1  0
 14 34  1  0
 17 35  1  0
 17 36  1  0
 18 37  1  0
 18 38  1  0
 19 39  1  0
 22 40  1  0
 22 41  1  0
M  END
>  <Energy>  (1462) 
991.66886678138144

>  <compound_id>  (1462) 
17826

>  <target_id>  (1462) 
1

>  <reference_id>  (1462) 
85

>  <inspiration_ids>  (1462) 
[85, 94]

>  <energy_score>  (1462) 
1019.4616074996893

>  <distance_score>  (1462) 
11.555528715963105

>  <path>  (1462) 
/opt/xchem-fragalysis-2/maxwin/BulkDock/SCRATCH/511014/C17826-P85/C17826-P85.minimised.mol

>  <scratch_subdir>  (1462) 
/opt/xchem-fragalysis-2/maxwin/BulkDock/SCRATCH/511014/C17826-P85

>  <fragmenstein_runtime>  (1462) 
11.144896745681763

>  <fragmenstein_outcome>  (1462) 
too moved

>  <fragmenstein_mode>  (1462) 
expansion

>  <fragmenstein_error>  (1462) 


$$$$
C17826-P94
     RDKit          3D

 41 43  0  0  0  0  0  0  0  0999 V2000
   -1.7707  -26.2941   21.7587 O   0  0  0  0  0  0  0  0  0  0  0  0
   -2.1621  -26.5391   22.8310 C   0  0  0  0  0  0  0  0  0  0  0  0
   -3.4774  -26.2332   23.4707 N   0  0  0  0  0  0  0  0  0  0  0  0
   -4.7166  -25.3938   22.9452 C   0  0  0  0  0  0  0  0  0  0  0  0
   -6.1663  -24.3569   23.1432 C   0  0  0  0  0  0  0  0  0  0  0  0
   -7.6317  -23.8746   23.9736 C   0  0  0  0  0  0  0  0  0  0  0  0
   -9.3034  -23.8211   23.8452 N   0  0  0  0  0  0  0  0  0  0  0  0
   -9.9815  -22.7125   23.1574 C   0  0  0  0  0  0  0  0  0  0  0  0
  -11.2667  -22.5590   23.4498 N   0  0  0  0  0  0  0  0  0  0  0  0
  -11.6017  -23.4598   24.4604 C   0  0  0  0  0  0  0  0  0  0  0  0
  -12.8703  -23.8214   24.9303 C   0  0  0  0  0  0  0  0  0  0  0  0
  -12.9766  -24.7191   25.9837 C   0  0  0  0  0  0  0  0  0  0  0  0
  -11.8484  -25.0669   26.6962 C   0  0  0  0  0  0  0  0  0  0  0  0
  -10.5816  -24.7145   26.2279 C   0  0  0  0  0  0  0  0  0  0  0  0
  -10.4408  -24.1455   24.9266 C   0  0  0  0  0  0  0  0  0  0  0  0
   -1.4638  -27.1422   23.9556 N   0  0  0  0  0  0  0  0  0  0  0  0
   -1.6363  -28.6649   23.9236 C   0  0  0  0  0  0  0  0  0  0  0  0
   -1.1702  -29.3585   22.5757 C   0  0  0  0  0  0  0  0  0  0  0  0
    0.1033  -28.7844   22.0382 C   0  0  0  0  0  0  0  0  0  0  0  0
    0.6806  -27.8755   22.8215 C   0  0  0  0  0  0  0  0  0  0  0  0
    1.8425  -27.2927   22.4663 F   0  0  0  0  0  0  0  0  0  0  0  0
   -0.0057  -27.5266   24.1205 C   0  0  0  0  0  0  0  0  0  0  0  0
   -3.4500  -26.5107   24.4153 H   0  0  0  0  0  0  0  0  0  0  0  0
   -5.2811  -26.2646   22.6320 H   0  0  0  0  0  0  0  0  0  0  0  0
   -4.6443  -25.0234   23.9640 H   0  0  0  0  0  0  0  0  0  0  0  0
   -6.4911  -24.4012   22.1256 H   0  0  0  0  0  0  0  0  0  0  0  0
   -5.6598  -23.4179   23.2887 H   0  0  0  0  0  0  0  0  0  0  0  0
   -7.6271  -22.9021   23.4926 H   0  0  0  0  0  0  0  0  0  0  0  0
   -7.3376  -23.7247   25.0036 H   0  0  0  0  0  0  0  0  0  0  0  0
   -9.4853  -22.0475   22.4802 H   0  0  0  0  0  0  0  0  0  0  0  0
  -13.7536  -23.3941   24.4685 H   0  0  0  0  0  0  0  0  0  0  0  0
  -13.9562  -25.0424   26.3127 H   0  0  0  0  0  0  0  0  0  0  0  0
  -11.9491  -25.5927   27.6427 H   0  0  0  0  0  0  0  0  0  0  0  0
   -9.7659  -24.9014   26.9135 H   0  0  0  0  0  0  0  0  0  0  0  0
   -1.3084  -29.1925   24.8346 H   0  0  0  0  0  0  0  0  0  0  0  0
   -2.7261  -28.8191   23.9527 H   0  0  0  0  0  0  0  0  0  0  0  0
   -1.9529  -29.2697   21.8237 H   0  0  0  0  0  0  0  0  0  0  0  0
   -1.0460  -30.4315   22.7623 H   0  0  0  0  0  0  0  0  0  0  0  0
    0.5184  -29.0851   21.0855 H   0  0  0  0  0  0  0  0  0  0  0  0
    0.4339  -26.5520   24.3843 H   0  0  0  0  0  0  0  0  0  0  0  0
    0.2720  -28.1382   24.9928 H   0  0  0  0  0  0  0  0  0  0  0  0
  1  2  2  0
  2  3  1  0
  3  4  1  0
  4  5  1  0
  5  6  1  0
  6  7  1  0
  7  8  1  0
  8  9  2  0
  9 10  1  0
 10 11  2  0
 11 12  1  0
 12 13  2  0
 13 14  1  0
 14 15  2  0
  2 16  1  0
 16 17  1  0
 17 18  1  0
 18 19  1  0
 19 20  2  0
 20 21  1  0
 20 22  1  0
 15  7  1  0
 22 16  1  0
 15 10  1  0
  3 23  1  0
  4 24  1  0
  4 25  1  0
  5 26  1  0
  5 27  1  0
  6 28  1  0
  6 29  1  0
  8 30  1  0
 11 31  1  0
 12 32  1  0
 13 33  1  0
 14 34  1  0
 17 35  1  0
 17 36  1  0
 18 37  1  0
 18 38  1  0
 19 39  1  0
 22 40  1  0
 22 41  1  0
M  END
>  <Energy>  (1463) 
280.58749320630426

>  <compound_id>  (1463) 
17826

>  <target_id>  (1463) 
1

>  <reference_id>  (1463) 
94

>  <inspiration_ids>  (1463) 
[85, 94]

>  <energy_score>  (1463) 
308.3802339246256

>  <distance_score>  (1463) 
13.07297444617185

>  <path>  (1463) 
/opt/xchem-fragalysis-2/maxwin/BulkDock/SCRATCH/511014/C17826-P94/C17826-P94.minimised.mol

>  <scratch_subdir>  (1463) 
/opt/xchem-fragalysis-2/maxwin/BulkDock/SCRATCH/511014/C17826-P94

>  <fragmenstein_runtime>  (1463) 
22.93051266670227

>  <fragmenstein_outcome>  (1463) 
too moved

>  <fragmenstein_mode>  (1463) 
expansion

>  <fragmenstein_error>  (1463) 


$$$$
C17833-P85
     RDKit          3D

 45 47  0  0  0  0  0  0  0  0999 V2000
    1.8374  -20.1763   12.4299 C   0  0  0  0  0  0  0  0  0  0  0  0
    0.8173  -20.5219   13.4018 O   0  0  0  0  0  0  0  0  0  0  0  0
   -0.2864  -19.5529   13.5458 C   0  0  0  0  0  0  0  0  0  0  0  0
    0.5721  -18.7415   14.3637 C   0  0  0  0  0  0  0  0  0  0  0  0
   -0.6393  -18.3544   14.9821 C   0  0  0  0  0  0  0  0  0  0  0  0
   -1.1072  -18.4186   16.4243 C   0  0  0  0  0  0  0  0  0  0  0  0
   -3.1166  -18.4181   16.1951 N   0  0  0  0  0  0  0  0  0  0  0  0
   -4.5882  -18.9465   17.4807 C   0  0  0  0  0  0  0  0  0  0  0  0
   -4.1191  -19.3349   18.3380 O   0  0  0  0  0  0  0  0  0  0  0  0
   -6.4812  -18.8715   17.9005 N   0  0  0  0  0  0  0  0  0  0  0  0
   -7.3058  -19.3770   19.1391 C   0  0  0  0  0  0  0  0  0  0  0  0
   -9.0040  -20.4395   18.7290 C   0  0  0  0  0  0  0  0  0  0  0  0
  -10.2086  -21.3798   19.7812 C   0  0  0  0  0  0  0  0  0  0  0  0
  -11.2064  -21.4082   20.8898 N   0  0  0  0  0  0  0  0  0  0  0  0
  -10.8419  -21.7072   22.2019 C   0  0  0  0  0  0  0  0  0  0  0  0
  -11.8303  -21.8380   23.0372 N   0  0  0  0  0  0  0  0  0  0  0  0
  -12.9247  -21.7660   22.2506 C   0  0  0  0  0  0  0  0  0  0  0  0
  -14.2529  -21.9594   22.6424 C   0  0  0  0  0  0  0  0  0  0  0  0
  -15.2351  -21.9202   21.6622 C   0  0  0  0  0  0  0  0  0  0  0  0
  -14.8909  -21.6836   20.3300 C   0  0  0  0  0  0  0  0  0  0  0  0
  -13.5625  -21.4785   19.9215 C   0  0  0  0  0  0  0  0  0  0  0  0
  -12.5817  -21.5268   20.9069 C   0  0  0  0  0  0  0  0  0  0  0  0
   -2.0677  -19.4963   14.6453 C   0  0  0  0  0  0  0  0  0  0  0  0
    2.4000  -19.2884   12.7192 H   0  0  0  0  0  0  0  0  0  0  0  0
    2.5548  -21.0016   12.3883 H   0  0  0  0  0  0  0  0  0  0  0  0
    1.4016  -20.0369   11.4369 H   0  0  0  0  0  0  0  0  0  0  0  0
   -0.2935  -19.2161   12.5307 H   0  0  0  0  0  0  0  0  0  0  0  0
    1.4896  -19.0818   14.8511 H   0  0  0  0  0  0  0  0  0  0  0  0
   -1.5844  -17.9150   14.6200 H   0  0  0  0  0  0  0  0  0  0  0  0
   -0.5556  -19.2593   16.9552 H   0  0  0  0  0  0  0  0  0  0  0  0
   -1.0389  -17.9656   17.4244 H   0  0  0  0  0  0  0  0  0  0  0  0
   -6.9392  -18.4498   17.1790 H   0  0  0  0  0  0  0  0  0  0  0  0
   -7.3117  -18.6536   19.9453 H   0  0  0  0  0  0  0  0  0  0  0  0
   -6.5174  -19.9940   19.5814 H   0  0  0  0  0  0  0  0  0  0  0  0
   -9.7189  -19.9695   18.0014 H   0  0  0  0  0  0  0  0  0  0  0  0
   -8.6109  -21.0657   17.9414 H   0  0  0  0  0  0  0  0  0  0  0  0
  -10.6605  -22.0736   19.0668 H   0  0  0  0  0  0  0  0  0  0  0  0
   -9.4701  -21.7844   20.4232 H   0  0  0  0  0  0  0  0  0  0  0  0
   -9.8116  -21.7954   22.4841 H   0  0  0  0  0  0  0  0  0  0  0  0
  -14.4967  -22.1521   23.6809 H   0  0  0  0  0  0  0  0  0  0  0  0
  -16.2758  -22.0718   21.9378 H   0  0  0  0  0  0  0  0  0  0  0  0
  -15.6812  -21.6551   19.5807 H   0  0  0  0  0  0  0  0  0  0  0  0
  -13.3234  -21.2978   18.8793 H   0  0  0  0  0  0  0  0  0  0  0  0
   -2.2258  -20.2291   13.8560 H   0  0  0  0  0  0  0  0  0  0  0  0
   -2.4771  -20.6276   14.6277 H   0  0  0  0  0  0  0  0  0  0  0  0
  1  2  1  0
  2  3  1  0
  3  4  1  0
  4  5  2  0
  5  6  1  0
  6  7  1  0
  7  8  1  0
  8  9  2  0
  8 10  1  0
 10 11  1  0
 11 12  1  0
 12 13  1  0
 13 14  1  0
 14 15  1  0
 15 16  2  0
 16 17  1  0
 17 18  2  0
 18 19  1  0
 19 20  2  0
 20 21  1  0
 21 22  2  0
  7 23  1  0
 23  3  1  0
 22 14  1  0
 22 17  1  0
  1 24  1  0
  1 25  1  0
  1 26  1  0
  3 27  1  0
  4 28  1  0
  5 29  1  0
  6 30  1  0
  6 31  1  0
 10 32  1  0
 11 33  1  0
 11 34  1  0
 12 35  1  0
 12 36  1  0
 13 37  1  0
 13 38  1  0
 15 39  1  0
 18 40  1  0
 19 41  1  0
 20 42  1  0
 21 43  1  0
 23 44  1  0
 23 45  1  0
M  END
>  <Energy>  (1464) 
1280.6224452174913

>  <compound_id>  (1464) 
17833

>  <target_id>  (1464) 
1

>  <reference_id>  (1464) 
85

>  <inspiration_ids>  (1464) 
[85, 94]

>  <energy_score>  (1464) 
1296.5542867329636

>  <distance_score>  (1464) 
10.024387161439712

>  <path>  (1464) 
/opt/xchem-fragalysis-2/maxwin/BulkDock/SCRATCH/511014/C17833-P85/C17833-P85.minimised.mol

>  <scratch_subdir>  (1464) 
/opt/xchem-fragalysis-2/maxwin/BulkDock/SCRATCH/511014/C17833-P85

>  <fragmenstein_runtime>  (1464) 
13.409566402435303

>  <fragmenstein_outcome>  (1464) 
too moved

>  <fragmenstein_mode>  (1464) 
expansion

>  <fragmenstein_error>  (1464) 


$$$$
C17833-P94
     RDKit          3D

 45 47  0  0  0  0  0  0  0  0999 V2000
    2.6169  -18.3162   26.5169 C   0  0  0  0  0  0  0  0  0  0  0  0
    1.7173  -19.0481   25.6951 O   0  0  0  0  0  0  0  0  0  0  0  0
    2.1949  -20.2900   25.1248 C   0  0  0  0  0  0  0  0  0  0  0  0
    3.6722  -20.3480   24.9505 C   0  0  0  0  0  0  0  0  0  0  0  0
    4.3060  -21.1722   25.7947 C   0  0  0  0  0  0  0  0  0  0  0  0
    3.5406  -21.9581   26.8673 C   0  0  0  0  0  0  0  0  0  0  0  0
    2.2552  -21.3554   27.4513 N   0  0  0  0  0  0  0  0  0  0  0  0
    1.2560  -21.9364   28.3753 C   0  0  0  0  0  0  0  0  0  0  0  0
    1.1662  -23.0259   28.8090 O   0  0  0  0  0  0  0  0  0  0  0  0
    0.4433  -20.7382   28.6332 N   0  0  0  0  0  0  0  0  0  0  0  0
   -0.6538  -20.5119   29.5721 C   0  0  0  0  0  0  0  0  0  0  0  0
   -2.0596  -20.9191   29.0721 C   0  0  0  0  0  0  0  0  0  0  0  0
   -3.1955  -20.0716   29.6748 C   0  0  0  0  0  0  0  0  0  0  0  0
   -3.4972  -20.2224   31.0779 N   0  0  0  0  0  0  0  0  0  0  0  0
   -3.0607  -21.2002   31.9217 C   0  0  0  0  0  0  0  0  0  0  0  0
   -3.5647  -21.0648   33.1239 N   0  0  0  0  0  0  0  0  0  0  0  0
   -4.4051  -19.9833   33.0476 C   0  0  0  0  0  0  0  0  0  0  0  0
   -5.2461  -19.4383   34.0258 C   0  0  0  0  0  0  0  0  0  0  0  0
   -5.9513  -18.2690   33.7232 C   0  0  0  0  0  0  0  0  0  0  0  0
   -5.8277  -17.6616   32.4706 C   0  0  0  0  0  0  0  0  0  0  0  0
   -5.0330  -18.2241   31.4651 C   0  0  0  0  0  0  0  0  0  0  0  0
   -4.3336  -19.3919   31.7911 C   0  0  0  0  0  0  0  0  0  0  0  0
    1.7870  -21.5080   26.0174 C   0  0  0  0  0  0  0  0  0  0  0  0
    2.0617  -17.4803   26.9525 H   0  0  0  0  0  0  0  0  0  0  0  0
    3.0137  -18.9143   27.3393 H   0  0  0  0  0  0  0  0  0  0  0  0
    3.4295  -17.8937   25.9187 H   0  0  0  0  0  0  0  0  0  0  0  0
    1.7066  -20.4363   24.1600 H   0  0  0  0  0  0  0  0  0  0  0  0
    4.1682  -19.7694   24.1817 H   0  0  0  0  0  0  0  0  0  0  0  0
    5.3823  -21.3062   25.7409 H   0  0  0  0  0  0  0  0  0  0  0  0
    4.2001  -21.9442   27.7481 H   0  0  0  0  0  0  0  0  0  0  0  0
    3.4533  -23.0362   26.6571 H   0  0  0  0  0  0  0  0  0  0  0  0
    0.8546  -19.9478   28.1515 H   0  0  0  0  0  0  0  0  0  0  0  0
   -0.6281  -19.4419   29.8038 H   0  0  0  0  0  0  0  0  0  0  0  0
   -0.4134  -21.0631   30.4867 H   0  0  0  0  0  0  0  0  0  0  0  0
   -2.0904  -20.7778   27.9838 H   0  0  0  0  0  0  0  0  0  0  0  0
   -2.2225  -21.9892   29.2445 H   0  0  0  0  0  0  0  0  0  0  0  0
   -4.1121  -20.2849   29.1219 H   0  0  0  0  0  0  0  0  0  0  0  0
   -2.9656  -19.0115   29.5098 H   0  0  0  0  0  0  0  0  0  0  0  0
   -2.3866  -21.9932   31.6283 H   0  0  0  0  0  0  0  0  0  0  0  0
   -5.3336  -19.9114   34.9964 H   0  0  0  0  0  0  0  0  0  0  0  0
   -6.6106  -17.8367   34.4703 H   0  0  0  0  0  0  0  0  0  0  0  0
   -6.3976  -16.7610   32.2596 H   0  0  0  0  0  0  0  0  0  0  0  0
   -4.9822  -17.7794   30.4798 H   0  0  0  0  0  0  0  0  0  0  0  0
    1.9281  -22.4959   25.5395 H   0  0  0  0  0  0  0  0  0  0  0  0
    0.6993  -21.5004   26.1032 H   0  0  0  0  0  0  0  0  0  0  0  0
  1  2  1  0
  2  3  1  0
  3  4  1  0
  4  5  2  0
  5  6  1  0
  6  7  1  0
  7  8  1  0
  8  9  2  0
  8 10  1  0
 10 11  1  0
 11 12  1  0
 12 13  1  0
 13 14  1  0
 14 15  1  0
 15 16  2  0
 16 17  1  0
 17 18  2  0
 18 19  1  0
 19 20  2  0
 20 21  1  0
 21 22  2  0
  7 23  1  0
 23  3  1  0
 22 14  1  0
 22 17  1  0
  1 24  1  0
  1 25  1  0
  1 26  1  0
  3 27  1  0
  4 28  1  0
  5 29  1  0
  6 30  1  0
  6 31  1  0
 10 32  1  0
 11 33  1  0
 11 34  1  0
 12 35  1  0
 12 36  1  0
 13 37  1  0
 13 38  1  0
 15 39  1  0
 18 40  1  0
 19 41  1  0
 20 42  1  0
 21 43  1  0
 23 44  1  0
 23 45  1  0
M  END
>  <Energy>  (1465) 
44.714187603197573

>  <compound_id>  (1465) 
17833

>  <target_id>  (1465) 
1

>  <reference_id>  (1465) 
94

>  <inspiration_ids>  (1465) 
[85, 94]

>  <energy_score>  (1465) 
60.64602911867166

>  <distance_score>  (1465) 
13.564494548550147

>  <path>  (1465) 
/opt/xchem-fragalysis-2/maxwin/BulkDock/SCRATCH/511014/C17833-P94/C17833-P94.minimised.mol

>  <scratch_subdir>  (1465) 
/opt/xchem-fragalysis-2/maxwin/BulkDock/SCRATCH/511014/C17833-P94

>  <fragmenstein_runtime>  (1465) 
54.27454948425293

>  <fragmenstein_outcome>  (1465) 
too moved

>  <fragmenstein_mode>  (1465) 
expansion

>  <fragmenstein_error>  (1465) 


$$$$
C17834-P85
     RDKit          3D

 44 46  0  0  0  0  0  0  0  0999 V2000
   -7.7454  -17.3710   17.7742 C   0  0  0  0  0  0  0  0  0  0  0  0
   -6.9761  -17.5494   19.2650 C   0  0  0  0  0  0  0  0  0  0  0  0
   -5.6556  -17.6837   19.0843 C   0  0  0  0  0  0  0  0  0  0  0  0
   -5.3876  -18.5711   20.1217 C   0  0  0  0  0  0  0  0  0  0  0  0
   -6.4498  -19.5837   19.8392 C   0  0  0  0  0  0  0  0  0  0  0  0
   -7.7818  -20.0046   20.3948 N   0  0  0  0  0  0  0  0  0  0  0  0
   -9.2972  -20.6346   19.5035 C   0  0  0  0  0  0  0  0  0  0  0  0
   -9.4202  -20.6854   18.3202 O   0  0  0  0  0  0  0  0  0  0  0  0
  -10.3599  -21.2408   20.6383 N   0  0  0  0  0  0  0  0  0  0  0  0
  -11.6677  -21.8542   20.4880 C   0  0  0  0  0  0  0  0  0  0  0  0
  -12.5697  -21.8912   21.8469 C   0  0  0  0  0  0  0  0  0  0  0  0
  -11.9102  -22.0871   23.2617 C   0  0  0  0  0  0  0  0  0  0  0  0
  -12.5296  -22.8882   24.3427 N   0  0  0  0  0  0  0  0  0  0  0  0
  -13.8643  -23.0876   24.5027 C   0  0  0  0  0  0  0  0  0  0  0  0
  -14.0872  -23.3057   25.7772 N   0  0  0  0  0  0  0  0  0  0  0  0
  -12.8925  -23.1181   26.4220 C   0  0  0  0  0  0  0  0  0  0  0  0
  -12.4283  -22.8132   27.7026 C   0  0  0  0  0  0  0  0  0  0  0  0
  -11.5244  -23.7091   28.2231 C   0  0  0  0  0  0  0  0  0  0  0  0
  -10.8597  -24.5471   27.3634 C   0  0  0  0  0  0  0  0  0  0  0  0
  -10.9641  -24.3779   25.9800 C   0  0  0  0  0  0  0  0  0  0  0  0
  -11.9838  -23.5225   25.5103 C   0  0  0  0  0  0  0  0  0  0  0  0
   -7.5951  -18.4249   20.8207 C   0  0  0  0  0  0  0  0  0  0  0  0
   -8.7497  -16.9836   17.5814 H   0  0  0  0  0  0  0  0  0  0  0  0
   -7.2567  -16.6382   17.1185 H   0  0  0  0  0  0  0  0  0  0  0  0
   -7.7687  -18.3761   17.4303 H   0  0  0  0  0  0  0  0  0  0  0  0
   -4.9931  -17.4924   18.2584 H   0  0  0  0  0  0  0  0  0  0  0  0
   -4.5144  -19.1523   20.0300 H   0  0  0  0  0  0  0  0  0  0  0  0
   -5.4307  -17.8849   20.9740 H   0  0  0  0  0  0  0  0  0  0  0  0
   -5.8383  -20.4254   20.1722 H   0  0  0  0  0  0  0  0  0  0  0  0
   -6.5154  -19.7934   18.7664 H   0  0  0  0  0  0  0  0  0  0  0  0
   -9.9640  -21.1304   21.5474 H   0  0  0  0  0  0  0  0  0  0  0  0
  -11.5078  -22.8819   20.1573 H   0  0  0  0  0  0  0  0  0  0  0  0
  -12.2099  -21.3312   19.6944 H   0  0  0  0  0  0  0  0  0  0  0  0
  -13.0865  -20.9219   21.8807 H   0  0  0  0  0  0  0  0  0  0  0  0
  -13.3589  -22.6315   21.6779 H   0  0  0  0  0  0  0  0  0  0  0  0
  -10.8950  -22.4442   23.1364 H   0  0  0  0  0  0  0  0  0  0  0  0
  -11.8440  -21.0773   23.6891 H   0  0  0  0  0  0  0  0  0  0  0  0
  -14.6171  -22.9604   23.7374 H   0  0  0  0  0  0  0  0  0  0  0  0
  -12.9318  -22.1361   28.3777 H   0  0  0  0  0  0  0  0  0  0  0  0
  -11.3901  -23.7633   29.2951 H   0  0  0  0  0  0  0  0  0  0  0  0
  -10.1883  -25.2615   27.7908 H   0  0  0  0  0  0  0  0  0  0  0  0
  -10.2551  -24.8741   25.3459 H   0  0  0  0  0  0  0  0  0  0  0  0
   -6.8804  -18.5281   21.6623 H   0  0  0  0  0  0  0  0  0  0  0  0
   -8.1924  -17.7729   21.4854 H   0  0  0  0  0  0  0  0  0  0  0  0
  1  2  1  0
  2  3  2  0
  3  4  1  0
  4  5  1  0
  5  6  1  0
  6  7  1  0
  7  8  2  0
  7  9  1  0
  9 10  1  0
 10 11  1  0
 11 12  1  0
 12 13  1  0
 13 14  1  0
 14 15  2  0
 15 16  1  0
 16 17  2  0
 17 18  1  0
 18 19  2  0
 19 20  1  0
 20 21  2  0
  6 22  1  0
 22  2  1  0
 21 13  1  0
 21 16  1  0
  1 23  1  0
  1 24  1  0
  1 25  1  0
  3 26  1  0
  4 27  1  0
  4 28  1  0
  5 29  1  0
  5 30  1  0
  9 31  1  0
 10 32  1  0
 10 33  1  0
 11 34  1  0
 11 35  1  0
 12 36  1  0
 12 37  1  0
 14 38  1  0
 17 39  1  0
 18 40  1  0
 19 41  1  0
 20 42  1  0
 22 43  1  0
 22 44  1  0
M  END
>  <Energy>  (1466) 
370.75336875659337

>  <compound_id>  (1466) 
17834

>  <target_id>  (1466) 
1

>  <reference_id>  (1466) 
85

>  <inspiration_ids>  (1466) 
[85, 94]

>  <energy_score>  (1466) 
396.70386743863537

>  <distance_score>  (1466) 
10.783685778800937

>  <path>  (1466) 
/opt/xchem-fragalysis-2/maxwin/BulkDock/SCRATCH/511014/C17834-P85/C17834-P85.minimised.mol

>  <scratch_subdir>  (1466) 
/opt/xchem-fragalysis-2/maxwin/BulkDock/SCRATCH/511014/C17834-P85

>  <fragmenstein_runtime>  (1466) 
10.183943033218384

>  <fragmenstein_outcome>  (1466) 
too moved

>  <fragmenstein_mode>  (1466) 
expansion

>  <fragmenstein_error>  (1466) 


$$$$
C17834-P94
     RDKit          3D

 44 46  0  0  0  0  0  0  0  0999 V2000
    0.7273  -20.8259   14.1682 C   0  0  0  0  0  0  0  0  0  0  0  0
   -1.3631  -20.6961   13.8203 C   0  0  0  0  0  0  0  0  0  0  0  0
   -0.8706  -19.5788   13.3030 C   0  0  0  0  0  0  0  0  0  0  0  0
   -1.9022  -19.1048   14.1857 C   0  0  0  0  0  0  0  0  0  0  0  0
   -3.2907  -20.5319   13.6012 C   0  0  0  0  0  0  0  0  0  0  0  0
   -4.2675  -21.3902   14.6581 N   0  0  0  0  0  0  0  0  0  0  0  0
   -5.3499  -20.7953   16.4820 C   0  0  0  0  0  0  0  0  0  0  0  0
   -5.0651  -19.6218   16.8110 O   0  0  0  0  0  0  0  0  0  0  0  0
   -6.8342  -21.4815   17.2847 N   0  0  0  0  0  0  0  0  0  0  0  0
   -8.1738  -20.6828   18.3513 C   0  0  0  0  0  0  0  0  0  0  0  0
   -9.7569  -21.2314   19.2007 C   0  0  0  0  0  0  0  0  0  0  0  0
  -11.1720  -20.7506   19.8949 C   0  0  0  0  0  0  0  0  0  0  0  0
  -11.5749  -21.3842   21.2071 N   0  0  0  0  0  0  0  0  0  0  0  0
  -10.7477  -21.7015   22.2569 C   0  0  0  0  0  0  0  0  0  0  0  0
  -11.3503  -22.2547   23.2775 N   0  0  0  0  0  0  0  0  0  0  0  0
  -12.6507  -22.3133   22.9159 C   0  0  0  0  0  0  0  0  0  0  0  0
  -13.7156  -22.8688   23.6362 C   0  0  0  0  0  0  0  0  0  0  0  0
  -14.9905  -22.8068   23.0867 C   0  0  0  0  0  0  0  0  0  0  0  0
  -15.1845  -22.2140   21.8391 C   0  0  0  0  0  0  0  0  0  0  0  0
  -14.1205  -21.6806   21.0900 C   0  0  0  0  0  0  0  0  0  0  0  0
  -12.8425  -21.7531   21.6455 C   0  0  0  0  0  0  0  0  0  0  0  0
   -3.0736  -21.9516   14.4526 C   0  0  0  0  0  0  0  0  0  0  0  0
    1.5424  -21.4990   13.8065 H   0  0  0  0  0  0  0  0  0  0  0  0
    1.0069  -21.0651   15.2514 H   0  0  0  0  0  0  0  0  0  0  0  0
    1.2489  -19.8446   14.0355 H   0  0  0  0  0  0  0  0  0  0  0  0
    0.0843  -19.2421   12.9009 H   0  0  0  0  0  0  0  0  0  0  0  0
   -2.4293  -18.1482   13.9927 H   0  0  0  0  0  0  0  0  0  0  0  0
   -1.7951  -18.7999   15.2433 H   0  0  0  0  0  0  0  0  0  0  0  0
   -4.1346  -19.8275   13.1108 H   0  0  0  0  0  0  0  0  0  0  0  0
   -3.5924  -20.7419   12.5160 H   0  0  0  0  0  0  0  0  0  0  0  0
   -6.9044  -22.4459   17.0211 H   0  0  0  0  0  0  0  0  0  0  0  0
   -7.5723  -19.8558   18.7562 H   0  0  0  0  0  0  0  0  0  0  0  0
   -8.7251  -20.2035   17.5557 H   0  0  0  0  0  0  0  0  0  0  0  0
  -10.1965  -21.8116   18.3922 H   0  0  0  0  0  0  0  0  0  0  0  0
   -9.4292  -21.7703   20.0661 H   0  0  0  0  0  0  0  0  0  0  0  0
  -11.3235  -19.6790   20.0151 H   0  0  0  0  0  0  0  0  0  0  0  0
  -11.9662  -21.0753   19.2079 H   0  0  0  0  0  0  0  0  0  0  0  0
   -9.6848  -21.5718   22.2124 H   0  0  0  0  0  0  0  0  0  0  0  0
  -13.5416  -23.3027   24.6144 H   0  0  0  0  0  0  0  0  0  0  0  0
  -15.8372  -23.2055   23.6390 H   0  0  0  0  0  0  0  0  0  0  0  0
  -16.1923  -22.1647   21.4289 H   0  0  0  0  0  0  0  0  0  0  0  0
  -14.2986  -21.2362   20.1166 H   0  0  0  0  0  0  0  0  0  0  0  0
   -3.5366  -22.3312   15.4390 H   0  0  0  0  0  0  0  0  0  0  0  0
   -2.9640  -22.8865   13.8229 H   0  0  0  0  0  0  0  0  0  0  0  0
  1  2  1  0
  2  3  2  0
  3  4  1  0
  4  5  1  0
  5  6  1  0
  6  7  1  0
  7  8  2  0
  7  9  1  0
  9 10  1  0
 10 11  1  0
 11 12  1  0
 12 13  1  0
 13 14  1  0
 14 15  2  0
 15 16  1  0
 16 17  2  0
 17 18  1  0
 18 19  2  0
 19 20  1  0
 20 21  2  0
  6 22  1  0
 22  2  1  0
 21 13  1  0
 21 16  1  0
  1 23  1  0
  1 24  1  0
  1 25  1  0
  3 26  1  0
  4 27  1  0
  4 28  1  0
  5 29  1  0
  5 30  1  0
  9 31  1  0
 10 32  1  0
 10 33  1  0
 11 34  1  0
 11 35  1  0
 12 36  1  0
 12 37  1  0
 14 38  1  0
 17 39  1  0
 18 40  1  0
 19 41  1  0
 20 42  1  0
 22 43  1  0
 22 44  1  0
M  END
>  <Energy>  (1467) 
1256.3013637193992

>  <compound_id>  (1467) 
17834

>  <target_id>  (1467) 
1

>  <reference_id>  (1467) 
94

>  <inspiration_ids>  (1467) 
[85, 94]

>  <energy_score>  (1467) 
1282.251862401429

>  <distance_score>  (1467) 
9.720302627083344

>  <path>  (1467) 
/opt/xchem-fragalysis-2/maxwin/BulkDock/SCRATCH/511014/C17834-P94/C17834-P94.minimised.mol

>  <scratch_subdir>  (1467) 
/opt/xchem-fragalysis-2/maxwin/BulkDock/SCRATCH/511014/C17834-P94

>  <fragmenstein_runtime>  (1467) 
20.818477153778076

>  <fragmenstein_outcome>  (1467) 
too moved

>  <fragmenstein_mode>  (1467) 
expansion

>  <fragmenstein_error>  (1467) 


$$$$
C17835-P85
     RDKit          3D

 43 45  0  0  0  0  0  0  0  0999 V2000
    2.0532  -22.0017   17.4090 C   0  0  0  0  0  0  0  0  0  0  0  0
    1.2575  -23.0700   17.3037 C   0  0  0  0  0  0  0  0  0  0  0  0
    0.1716  -23.4476   18.2927 C   0  0  0  0  0  0  0  0  0  0  0  0
    0.0593  -22.5943   19.4563 N   0  0  0  0  0  0  0  0  0  0  0  0
   -1.2673  -22.0075   20.0983 C   0  0  0  0  0  0  0  0  0  0  0  0
   -3.3148  -22.4949   19.8312 C   0  0  0  0  0  0  0  0  0  0  0  0
   -4.4559  -24.1390   20.8230 C   0  0  0  0  0  0  0  0  0  0  0  0
   -5.5342  -24.4578   22.5393 C   0  0  0  0  0  0  0  0  0  0  0  0
   -6.7666  -23.6247   23.8649 C   0  0  0  0  0  0  0  0  0  0  0  0
   -7.7786  -23.6298   25.4875 N   0  0  0  0  0  0  0  0  0  0  0  0
   -7.5425  -22.8385   26.7961 C   0  0  0  0  0  0  0  0  0  0  0  0
   -8.3962  -22.9700   27.7914 N   0  0  0  0  0  0  0  0  0  0  0  0
   -9.4183  -23.8407   27.4826 C   0  0  0  0  0  0  0  0  0  0  0  0
  -10.6658  -24.0814   28.1820 C   0  0  0  0  0  0  0  0  0  0  0  0
  -11.6300  -24.9655   27.7600 C   0  0  0  0  0  0  0  0  0  0  0  0
  -11.5285  -25.3345   26.4671 C   0  0  0  0  0  0  0  0  0  0  0  0
  -10.4512  -24.8090   25.7362 C   0  0  0  0  0  0  0  0  0  0  0  0
   -9.1883  -24.3707   26.1862 C   0  0  0  0  0  0  0  0  0  0  0  0
    1.3237  -21.9365   19.8162 C   0  0  0  0  0  0  0  0  0  0  0  0
    1.9906  -21.1768   18.6418 C   0  0  0  0  0  0  0  0  0  0  0  0
    2.7802  -21.7604   16.6399 H   0  0  0  0  0  0  0  0  0  0  0  0
    1.4150  -23.7218   16.4552 H   0  0  0  0  0  0  0  0  0  0  0  0
    0.3914  -24.4637   18.6429 H   0  0  0  0  0  0  0  0  0  0  0  0
   -0.7794  -23.5021   17.7655 H   0  0  0  0  0  0  0  0  0  0  0  0
   -0.7604  -21.0267   19.9762 H   0  0  0  0  0  0  0  0  0  0  0  0
   -1.1255  -21.8691   21.1972 H   0  0  0  0  0  0  0  0  0  0  0  0
   -3.4894  -22.3989   18.7559 H   0  0  0  0  0  0  0  0  0  0  0  0
   -3.8561  -21.5746   20.2512 H   0  0  0  0  0  0  0  0  0  0  0  0
   -3.6526  -24.8959   21.0190 H   0  0  0  0  0  0  0  0  0  0  0  0
   -5.2012  -24.8243   20.5402 H   0  0  0  0  0  0  0  0  0  0  0  0
   -6.1840  -25.2072   22.0909 H   0  0  0  0  0  0  0  0  0  0  0  0
   -4.8744  -25.0937   23.1532 H   0  0  0  0  0  0  0  0  0  0  0  0
   -7.5714  -23.1519   23.2991 H   0  0  0  0  0  0  0  0  0  0  0  0
   -5.9769  -23.1037   24.3885 H   0  0  0  0  0  0  0  0  0  0  0  0
   -6.5518  -22.4162   26.9667 H   0  0  0  0  0  0  0  0  0  0  0  0
  -10.9565  -23.4944   29.0468 H   0  0  0  0  0  0  0  0  0  0  0  0
  -12.5230  -25.1455   28.3465 H   0  0  0  0  0  0  0  0  0  0  0  0
  -12.3980  -25.7565   25.9749 H   0  0  0  0  0  0  0  0  0  0  0  0
  -10.7452  -24.2698   24.8637 H   0  0  0  0  0  0  0  0  0  0  0  0
    2.0159  -22.7145   20.1677 H   0  0  0  0  0  0  0  0  0  0  0  0
    1.2000  -21.2678   20.6754 H   0  0  0  0  0  0  0  0  0  0  0  0
    1.4671  -20.2420   18.4231 H   0  0  0  0  0  0  0  0  0  0  0  0
    3.0184  -20.9325   18.9305 H   0  0  0  0  0  0  0  0  0  0  0  0
  1  2  2  0
  2  3  1  0
  3  4  1  0
  4  5  1  0
  5  6  1  0
  6  7  1  0
  7  8  1  0
  8  9  1  0
  9 10  1  0
 10 11  1  0
 11 12  2  0
 12 13  1  0
 13 14  2  0
 14 15  1  0
 15 16  2  0
 16 17  1  0
 17 18  2  0
  4 19  1  0
 19 20  1  0
 20  1  1  0
 18 10  1  0
 18 13  1  0
  1 21  1  0
  2 22  1  0
  3 23  1  0
  3 24  1  0
  5 25  1  0
  5 26  1  0
  6 27  1  0
  6 28  1  0
  7 29  1  0
  7 30  1  0
  8 31  1  0
  8 32  1  0
  9 33  1  0
  9 34  1  0
 11 35  1  0
 14 36  1  0
 15 37  1  0
 16 38  1  0
 17 39  1  0
 19 40  1  0
 19 41  1  0
 20 42  1  0
 20 43  1  0
M  END
>  <Energy>  (1468) 
723.67376690563276

>  <compound_id>  (1468) 
17835

>  <target_id>  (1468) 
1

>  <reference_id>  (1468) 
85

>  <inspiration_ids>  (1468) 
[85, 94]

>  <energy_score>  (1468) 
666.4818365603497

>  <distance_score>  (1468) 
8.859528079199121

>  <path>  (1468) 
/opt/xchem-fragalysis-2/maxwin/BulkDock/SCRATCH/511014/C17835-P85/C17835-P85.minimised.mol

>  <scratch_subdir>  (1468) 
/opt/xchem-fragalysis-2/maxwin/BulkDock/SCRATCH/511014/C17835-P85

>  <fragmenstein_runtime>  (1468) 
10.176652431488037

>  <fragmenstein_outcome>  (1468) 
too moved

>  <fragmenstein_mode>  (1468) 
expansion

>  <fragmenstein_error>  (1468) 


$$$$
C17835-P94
     RDKit          3D

 43 45  0  0  0  0  0  0  0  0999 V2000
    1.1067  -18.6756   17.6584 C   0  0  0  0  0  0  0  0  0  0  0  0
    0.2912  -18.0279   18.5115 C   0  0  0  0  0  0  0  0  0  0  0  0
   -1.4737  -17.8788   18.8954 C   0  0  0  0  0  0  0  0  0  0  0  0
   -2.3243  -18.1268   17.7929 N   0  0  0  0  0  0  0  0  0  0  0  0
   -3.9856  -18.2136   18.1098 C   0  0  0  0  0  0  0  0  0  0  0  0
   -5.2275  -19.4200   18.7540 C   0  0  0  0  0  0  0  0  0  0  0  0
   -7.0901  -19.4218   19.0651 C   0  0  0  0  0  0  0  0  0  0  0  0
   -8.7991  -20.4840   18.7723 C   0  0  0  0  0  0  0  0  0  0  0  0
  -10.2528  -21.3064   19.6921 C   0  0  0  0  0  0  0  0  0  0  0  0
  -10.9680  -21.5291   21.0158 N   0  0  0  0  0  0  0  0  0  0  0  0
  -11.3350  -20.7003   22.0688 C   0  0  0  0  0  0  0  0  0  0  0  0
  -11.7395  -21.3368   23.1371 N   0  0  0  0  0  0  0  0  0  0  0  0
  -12.3690  -22.3802   22.5701 C   0  0  0  0  0  0  0  0  0  0  0  0
  -13.3354  -23.2207   23.1444 C   0  0  0  0  0  0  0  0  0  0  0  0
  -13.9934  -24.1236   22.3147 C   0  0  0  0  0  0  0  0  0  0  0  0
  -13.6823  -24.1824   20.9527 C   0  0  0  0  0  0  0  0  0  0  0  0
  -12.6703  -23.3886   20.3745 C   0  0  0  0  0  0  0  0  0  0  0  0
  -11.9947  -22.4968   21.2142 C   0  0  0  0  0  0  0  0  0  0  0  0
   -1.2764  -18.6460   16.1557 C   0  0  0  0  0  0  0  0  0  0  0  0
    0.5923  -19.3058   16.4811 C   0  0  0  0  0  0  0  0  0  0  0  0
    2.1346  -18.8882   17.7537 H   0  0  0  0  0  0  0  0  0  0  0  0
    0.5753  -17.4916   19.4048 H   0  0  0  0  0  0  0  0  0  0  0  0
   -1.6974  -16.8724   19.3009 H   0  0  0  0  0  0  0  0  0  0  0  0
   -1.8439  -18.4246   19.7648 H   0  0  0  0  0  0  0  0  0  0  0  0
   -4.1006  -17.4060   18.8289 H   0  0  0  0  0  0  0  0  0  0  0  0
   -4.3607  -17.8392   17.1713 H   0  0  0  0  0  0  0  0  0  0  0  0
   -5.1699  -20.0610   17.9216 H   0  0  0  0  0  0  0  0  0  0  0  0
   -4.7785  -19.8482   19.6528 H   0  0  0  0  0  0  0  0  0  0  0  0
   -7.1306  -19.1462   20.1283 H   0  0  0  0  0  0  0  0  0  0  0  0
   -7.1812  -18.5304   18.4306 H   0  0  0  0  0  0  0  0  0  0  0  0
   -8.4596  -21.1210   17.9773 H   0  0  0  0  0  0  0  0  0  0  0  0
   -9.4797  -20.0124   18.0231 H   0  0  0  0  0  0  0  0  0  0  0  0
  -11.0931  -20.9209   19.0853 H   0  0  0  0  0  0  0  0  0  0  0  0
  -10.2692  -22.3192   19.3049 H   0  0  0  0  0  0  0  0  0  0  0  0
  -11.4229  -19.6279   22.0164 H   0  0  0  0  0  0  0  0  0  0  0  0
  -13.5975  -23.1114   24.1915 H   0  0  0  0  0  0  0  0  0  0  0  0
  -14.7724  -24.7625   22.7231 H   0  0  0  0  0  0  0  0  0  0  0  0
  -14.2298  -24.8794   20.3191 H   0  0  0  0  0  0  0  0  0  0  0  0
  -12.4506  -23.4631   19.3154 H   0  0  0  0  0  0  0  0  0  0  0  0
   -1.3512  -18.1993   15.1875 H   0  0  0  0  0  0  0  0  0  0  0  0
   -2.0598  -19.0204   15.5210 H   0  0  0  0  0  0  0  0  0  0  0  0
    0.9586  -20.3369   16.3464 H   0  0  0  0  0  0  0  0  0  0  0  0
    1.1913  -18.8760   15.6545 H   0  0  0  0  0  0  0  0  0  0  0  0
  1  2  2  0
  2  3  1  0
  3  4  1  0
  4  5  1  0
  5  6  1  0
  6  7  1  0
  7  8  1  0
  8  9  1  0
  9 10  1  0
 10 11  1  0
 11 12  2  0
 12 13  1  0
 13 14  2  0
 14 15  1  0
 15 16  2  0
 16 17  1  0
 17 18  2  0
  4 19  1  0
 19 20  1  0
 20  1  1  0
 18 10  1  0
 18 13  1  0
  1 21  1  0
  2 22  1  0
  3 23  1  0
  3 24  1  0
  5 25  1  0
  5 26  1  0
  6 27  1  0
  6 28  1  0
  7 29  1  0
  7 30  1  0
  8 31  1  0
  8 32  1  0
  9 33  1  0
  9 34  1  0
 11 35  1  0
 14 36  1  0
 15 37  1  0
 16 38  1  0
 17 39  1  0
 19 40  1  0
 19 41  1  0
 20 42  1  0
 20 43  1  0
M  END
>  <Energy>  (1469) 
580.35248303195169

>  <compound_id>  (1469) 
17835

>  <target_id>  (1469) 
1

>  <reference_id>  (1469) 
94

>  <inspiration_ids>  (1469) 
[85, 94]

>  <energy_score>  (1469) 
523.1605526866739

>  <distance_score>  (1469) 
10.578476937351072

>  <path>  (1469) 
/opt/xchem-fragalysis-2/maxwin/BulkDock/SCRATCH/511014/C17835-P94/C17835-P94.minimised.mol

>  <scratch_subdir>  (1469) 
/opt/xchem-fragalysis-2/maxwin/BulkDock/SCRATCH/511014/C17835-P94

>  <fragmenstein_runtime>  (1469) 
19.4656400680542

>  <fragmenstein_outcome>  (1469) 
too moved

>  <fragmenstein_mode>  (1469) 
expansion

>  <fragmenstein_error>  (1469) 


$$$$
C17836-P85
     RDKit          3D

 46 48  0  0  0  0  0  0  0  0999 V2000
    2.5974  -19.9416   12.2091 O   0  0  0  0  0  0  0  0  0  0  0  0
    1.6257  -20.0228   12.9526 C   0  0  0  0  0  0  0  0  0  0  0  0
    1.7995  -20.6488   14.1201 O   0  0  0  0  0  0  0  0  0  0  0  0
    0.2581  -19.4897   12.6551 C   0  0  0  0  0  0  0  0  0  0  0  0
    0.3353  -18.5644   11.6479 C   0  0  0  0  0  0  0  0  0  0  0  0
   -1.1806  -17.8081   11.0941 C   0  0  0  0  0  0  0  0  0  0  0  0
   -3.3042  -19.0120   11.1123 C   0  0  0  0  0  0  0  0  0  0  0  0
   -3.1960  -20.3603   12.8728 N   0  0  0  0  0  0  0  0  0  0  0  0
   -4.0061  -21.5500   14.5697 C   0  0  0  0  0  0  0  0  0  0  0  0
   -5.2531  -20.9951   16.6027 C   0  0  0  0  0  0  0  0  0  0  0  0
   -5.4131  -20.1384   18.6498 C   0  0  0  0  0  0  0  0  0  0  0  0
   -5.3135  -20.8606   20.6968 C   0  0  0  0  0  0  0  0  0  0  0  0
   -5.9292  -21.6404   22.6636 C   0  0  0  0  0  0  0  0  0  0  0  0
   -6.3382  -23.2437   23.6934 N   0  0  0  0  0  0  0  0  0  0  0  0
   -5.4935  -22.7751   25.1479 C   0  0  0  0  0  0  0  0  0  0  0  0
   -6.0777  -22.7195   26.3001 N   0  0  0  0  0  0  0  0  0  0  0  0
   -7.4375  -23.0992   26.1658 C   0  0  0  0  0  0  0  0  0  0  0  0
   -8.4159  -23.2453   27.3171 C   0  0  0  0  0  0  0  0  0  0  0  0
   -9.6466  -24.0153   27.3425 C   0  0  0  0  0  0  0  0  0  0  0  0
   -9.9769  -24.7181   26.2177 C   0  0  0  0  0  0  0  0  0  0  0  0
   -9.0947  -24.5994   25.0644 C   0  0  0  0  0  0  0  0  0  0  0  0
   -7.6742  -23.6879   24.7730 C   0  0  0  0  0  0  0  0  0  0  0  0
   -1.2906  -19.8787   13.5766 C   0  0  0  0  0  0  0  0  0  0  0  0
    2.7470  -20.8745   14.0625 H   0  0  0  0  0  0  0  0  0  0  0  0
    1.2294  -18.2620   11.1095 H   0  0  0  0  0  0  0  0  0  0  0  0
   -0.7920  -16.7505   11.4049 H   0  0  0  0  0  0  0  0  0  0  0  0
   -0.9927  -17.2216   10.0124 H   0  0  0  0  0  0  0  0  0  0  0  0
   -3.5136  -19.5928   10.1956 H   0  0  0  0  0  0  0  0  0  0  0  0
   -4.3016  -18.5536   11.3207 H   0  0  0  0  0  0  0  0  0  0  0  0
   -2.9809  -21.3734   14.6510 H   0  0  0  0  0  0  0  0  0  0  0  0
   -3.5768  -22.5877   14.6323 H   0  0  0  0  0  0  0  0  0  0  0  0
   -6.2401  -21.3694   17.0583 H   0  0  0  0  0  0  0  0  0  0  0  0
   -4.9581  -19.7242   16.8302 H   0  0  0  0  0  0  0  0  0  0  0  0
   -6.4639  -19.7851   18.6932 H   0  0  0  0  0  0  0  0  0  0  0  0
   -4.9129  -19.1641   18.6406 H   0  0  0  0  0  0  0  0  0  0  0  0
   -4.2413  -20.9425   20.8113 H   0  0  0  0  0  0  0  0  0  0  0  0
   -5.6406  -19.8252   20.9262 H   0  0  0  0  0  0  0  0  0  0  0  0
   -5.5858  -21.3080   23.6070 H   0  0  0  0  0  0  0  0  0  0  0  0
   -6.9292  -21.1753   22.9625 H   0  0  0  0  0  0  0  0  0  0  0  0
   -4.7228  -22.0214   25.0294 H   0  0  0  0  0  0  0  0  0  0  0  0
   -8.0350  -22.7832   28.1952 H   0  0  0  0  0  0  0  0  0  0  0  0
  -10.3254  -24.0231   28.1837 H   0  0  0  0  0  0  0  0  0  0  0  0
  -10.9364  -25.2161   26.1365 H   0  0  0  0  0  0  0  0  0  0  0  0
   -9.8013  -24.2717   24.3122 H   0  0  0  0  0  0  0  0  0  0  0  0
   -1.5023  -19.0602   14.3024 H   0  0  0  0  0  0  0  0  0  0  0  0
   -0.8960  -20.7500   13.8541 H   0  0  0  0  0  0  0  0  0  0  0  0
  1  2  2  0
  2  3  1  0
  2  4  1  0
  4  5  2  0
  5  6  1  0
  6  7  1  0
  7  8  1  0
  8  9  1  0
  9 10  1  0
 10 11  1  0
 11 12  1  0
 12 13  1  0
 13 14  1  0
 14 15  1  0
 15 16  2  0
 16 17  1  0
 17 18  2  0
 18 19  1  0
 19 20  2  0
 20 21  1  0
 21 22  2  0
  8 23  1  0
 23  4  1  0
 22 14  1  0
 22 17  1  0
  3 24  1  0
  5 25  1  0
  6 26  1  0
  6 27  1  0
  7 28  1  0
  7 29  1  0
  9 30  1  0
  9 31  1  0
 10 32  1  0
 10 33  1  0
 11 34  1  0
 11 35  1  0
 12 36  1  0
 12 37  1  0
 13 38  1  0
 13 39  1  0
 15 40  1  0
 18 41  1  0
 19 42  1  0
 20 43  1  0
 21 44  1  0
 23 45  1  0
 23 46  1  0
M  END
>  <Energy>  (1470) 
2248.0906151966556

>  <compound_id>  (1470) 
17836

>  <target_id>  (1470) 
1

>  <reference_id>  (1470) 
85

>  <inspiration_ids>  (1470) 
[85, 94]

>  <energy_score>  (1470) 
2203.5309345117635

>  <distance_score>  (1470) 
7.89862129518324

>  <path>  (1470) 
/opt/xchem-fragalysis-2/maxwin/BulkDock/SCRATCH/511014/C17836-P85/C17836-P85.minimised.mol

>  <scratch_subdir>  (1470) 
/opt/xchem-fragalysis-2/maxwin/BulkDock/SCRATCH/511014/C17836-P85

>  <fragmenstein_runtime>  (1470) 
12.18911075592041

>  <fragmenstein_outcome>  (1470) 
too moved

>  <fragmenstein_mode>  (1470) 
expansion

>  <fragmenstein_error>  (1470) 


$$$$
C17836-P94
     RDKit          3D

 46 48  0  0  0  0  0  0  0  0999 V2000
    2.7369  -20.3543   17.7923 O   0  0  0  0  0  0  0  0  0  0  0  0
    2.5906  -19.5889   16.8555 C   0  0  0  0  0  0  0  0  0  0  0  0
    3.4984  -18.6560   16.4822 O   0  0  0  0  0  0  0  0  0  0  0  0
    1.3752  -19.5036   16.0185 C   0  0  0  0  0  0  0  0  0  0  0  0
    1.5822  -19.6074   14.6615 C   0  0  0  0  0  0  0  0  0  0  0  0
    0.4705  -19.2610   13.5924 C   0  0  0  0  0  0  0  0  0  0  0  0
   -1.4754  -19.1492   14.0957 C   0  0  0  0  0  0  0  0  0  0  0  0
   -1.6629  -18.6544   15.7495 N   0  0  0  0  0  0  0  0  0  0  0  0
   -3.3776  -18.3917   16.7920 C   0  0  0  0  0  0  0  0  0  0  0  0
   -4.4950  -18.9798   18.3098 C   0  0  0  0  0  0  0  0  0  0  0  0
   -6.2816  -18.9040   18.9259 C   0  0  0  0  0  0  0  0  0  0  0  0
   -7.3242  -19.6094   20.3437 C   0  0  0  0  0  0  0  0  0  0  0  0
   -8.8104  -21.0202   20.4765 C   0  0  0  0  0  0  0  0  0  0  0  0
  -10.1938  -21.5071   21.4965 N   0  0  0  0  0  0  0  0  0  0  0  0
   -9.9906  -22.1415   22.7189 C   0  0  0  0  0  0  0  0  0  0  0  0
  -11.0607  -22.4618   23.3880 N   0  0  0  0  0  0  0  0  0  0  0  0
  -12.0630  -21.9530   22.6715 C   0  0  0  0  0  0  0  0  0  0  0  0
  -13.4146  -22.0119   23.0375 C   0  0  0  0  0  0  0  0  0  0  0  0
  -14.3583  -21.4568   22.1973 C   0  0  0  0  0  0  0  0  0  0  0  0
  -13.9428  -20.8804   21.0085 C   0  0  0  0  0  0  0  0  0  0  0  0
  -12.5865  -20.8351   20.6290 C   0  0  0  0  0  0  0  0  0  0  0  0
  -11.6019  -21.3655   21.4710 C   0  0  0  0  0  0  0  0  0  0  0  0
   -0.1539  -19.2994   16.8547 C   0  0  0  0  0  0  0  0  0  0  0  0
    3.1766  -18.1404   15.7032 H   0  0  0  0  0  0  0  0  0  0  0  0
    2.5653  -19.8003   14.2406 H   0  0  0  0  0  0  0  0  0  0  0  0
    0.5411  -19.8443   12.7006 H   0  0  0  0  0  0  0  0  0  0  0  0
    0.7895  -18.3854   12.9976 H   0  0  0  0  0  0  0  0  0  0  0  0
   -1.1973  -20.0178   13.4897 H   0  0  0  0  0  0  0  0  0  0  0  0
   -2.1145  -20.0524   14.1334 H   0  0  0  0  0  0  0  0  0  0  0  0
   -2.8096  -18.1607   17.7211 H   0  0  0  0  0  0  0  0  0  0  0  0
   -3.8731  -17.4998   16.3862 H   0  0  0  0  0  0  0  0  0  0  0  0
   -4.0716  -18.3259   19.0908 H   0  0  0  0  0  0  0  0  0  0  0  0
   -4.1654  -19.9637   18.5979 H   0  0  0  0  0  0  0  0  0  0  0  0
   -6.2089  -17.8861   19.3359 H   0  0  0  0  0  0  0  0  0  0  0  0
   -6.9813  -18.7891   18.1225 H   0  0  0  0  0  0  0  0  0  0  0  0
   -6.4093  -19.8640   20.8794 H   0  0  0  0  0  0  0  0  0  0  0  0
   -7.5820  -18.7358   20.9564 H   0  0  0  0  0  0  0  0  0  0  0  0
   -8.5304  -20.9051   21.5462 H   0  0  0  0  0  0  0  0  0  0  0  0
   -9.4571  -20.7108   19.6789 H   0  0  0  0  0  0  0  0  0  0  0  0
   -9.0251  -22.4536   23.0676 H   0  0  0  0  0  0  0  0  0  0  0  0
  -13.7010  -22.4822   23.9717 H   0  0  0  0  0  0  0  0  0  0  0  0
  -15.4110  -21.4820   22.4627 H   0  0  0  0  0  0  0  0  0  0  0  0
  -14.6886  -20.4576   20.3358 H   0  0  0  0  0  0  0  0  0  0  0  0
  -12.3794  -20.3844   19.6743 H   0  0  0  0  0  0  0  0  0  0  0  0
    0.5586  -18.6573   17.5021 H   0  0  0  0  0  0  0  0  0  0  0  0
   -0.6434  -18.8332   17.7287 H   0  0  0  0  0  0  0  0  0  0  0  0
  1  2  2  0
  2  3  1  0
  2  4  1  0
  4  5  2  0
  5  6  1  0
  6  7  1  0
  7  8  1  0
  8  9  1  0
  9 10  1  0
 10 11  1  0
 11 12  1  0
 12 13  1  0
 13 14  1  0
 14 15  1  0
 15 16  2  0
 16 17  1  0
 17 18  2  0
 18 19  1  0
 19 20  2  0
 20 21  1  0
 21 22  2  0
  8 23  1  0
 23  4  1  0
 22 14  1  0
 22 17  1  0
  3 24  1  0
  5 25  1  0
  6 26  1  0
  6 27  1  0
  7 28  1  0
  7 29  1  0
  9 30  1  0
  9 31  1  0
 10 32  1  0
 10 33  1  0
 11 34  1  0
 11 35  1  0
 12 36  1  0
 12 37  1  0
 13 38  1  0
 13 39  1  0
 15 40  1  0
 18 41  1  0
 19 42  1  0
 20 43  1  0
 21 44  1  0
 23 45  1  0
 23 46  1  0
M  END
>  <Energy>  (1471) 
803.69397210699549

>  <compound_id>  (1471) 
17836

>  <target_id>  (1471) 
1

>  <reference_id>  (1471) 
94

>  <inspiration_ids>  (1471) 
[85, 94]

>  <energy_score>  (1471) 
759.1342914220754

>  <distance_score>  (1471) 
9.646409559307763

>  <path>  (1471) 
/opt/xchem-fragalysis-2/maxwin/BulkDock/SCRATCH/511014/C17836-P94/C17836-P94.minimised.mol

>  <scratch_subdir>  (1471) 
/opt/xchem-fragalysis-2/maxwin/BulkDock/SCRATCH/511014/C17836-P94

>  <fragmenstein_runtime>  (1471) 
22.80606508255005

>  <fragmenstein_outcome>  (1471) 
too moved

>  <fragmenstein_mode>  (1471) 
expansion

>  <fragmenstein_error>  (1471) 


$$$$
C17837-P85
     RDKit          3D

 46 48  0  0  0  0  0  0  0  0999 V2000
    2.3584  -20.8563   11.5829 O   0  0  0  0  0  0  0  0  0  0  0  0
    1.4267  -20.0826   11.3896 C   0  0  0  0  0  0  0  0  0  0  0  0
    1.1516  -19.8091   10.0993 O   0  0  0  0  0  0  0  0  0  0  0  0
    0.5530  -19.2629   12.4242 C   0  0  0  0  0  0  0  0  0  0  0  0
    1.5821  -19.2391   13.4608 C   0  0  0  0  0  0  0  0  0  0  0  0
    1.0931  -18.9094   14.6407 C   0  0  0  0  0  0  0  0  0  0  0  0
   -0.7477  -18.5756   15.2208 C   0  0  0  0  0  0  0  0  0  0  0  0
   -1.9969  -18.5857   14.6827 N   0  0  0  0  0  0  0  0  0  0  0  0
   -3.4776  -18.2540   16.0340 C   0  0  0  0  0  0  0  0  0  0  0  0
   -4.5274  -18.6846   17.7416 C   0  0  0  0  0  0  0  0  0  0  0  0
   -6.1394  -18.7471   18.9145 C   0  0  0  0  0  0  0  0  0  0  0  0
   -6.6855  -19.4139   20.6387 C   0  0  0  0  0  0  0  0  0  0  0  0
   -8.0695  -20.0116   21.9424 C   0  0  0  0  0  0  0  0  0  0  0  0
   -9.4846  -21.2840   22.0268 N   0  0  0  0  0  0  0  0  0  0  0  0
  -10.0440  -21.6494   20.7403 C   0  0  0  0  0  0  0  0  0  0  0  0
  -11.3392  -21.7615   20.5958 N   0  0  0  0  0  0  0  0  0  0  0  0
  -11.8442  -21.1188   21.6486 C   0  0  0  0  0  0  0  0  0  0  0  0
  -13.1978  -20.8078   21.8668 C   0  0  0  0  0  0  0  0  0  0  0  0
  -13.7389  -21.2458   23.0580 C   0  0  0  0  0  0  0  0  0  0  0  0
  -12.9512  -22.0791   23.8086 C   0  0  0  0  0  0  0  0  0  0  0  0
  -11.6003  -22.2135   23.4676 C   0  0  0  0  0  0  0  0  0  0  0  0
  -10.9015  -21.2845   22.6848 C   0  0  0  0  0  0  0  0  0  0  0  0
   -0.8959  -19.5737   13.5205 C   0  0  0  0  0  0  0  0  0  0  0  0
    1.7653  -20.3887    9.6063 H   0  0  0  0  0  0  0  0  0  0  0  0
    0.4702  -18.2944   11.9108 H   0  0  0  0  0  0  0  0  0  0  0  0
    2.6474  -19.4035   13.3390 H   0  0  0  0  0  0  0  0  0  0  0  0
    1.8288  -18.9894   15.4506 H   0  0  0  0  0  0  0  0  0  0  0  0
   -0.9414  -17.6541   15.0419 H   0  0  0  0  0  0  0  0  0  0  0  0
   -0.7746  -18.7965   16.3181 H   0  0  0  0  0  0  0  0  0  0  0  0
   -2.9534  -17.8969   16.9254 H   0  0  0  0  0  0  0  0  0  0  0  0
   -3.8194  -17.2689   15.6453 H   0  0  0  0  0  0  0  0  0  0  0  0
   -4.6825  -17.6013   17.8053 H   0  0  0  0  0  0  0  0  0  0  0  0
   -4.9237  -19.5716   17.3716 H   0  0  0  0  0  0  0  0  0  0  0  0
   -6.1626  -17.7087   19.2049 H   0  0  0  0  0  0  0  0  0  0  0  0
   -7.0188  -18.8950   18.2989 H   0  0  0  0  0  0  0  0  0  0  0  0
   -6.4457  -18.4970   21.2026 H   0  0  0  0  0  0  0  0  0  0  0  0
   -5.7938  -20.0366   20.7583 H   0  0  0  0  0  0  0  0  0  0  0  0
   -8.3843  -19.1251   22.5109 H   0  0  0  0  0  0  0  0  0  0  0  0
   -7.5450  -20.4595   22.7791 H   0  0  0  0  0  0  0  0  0  0  0  0
   -9.4610  -21.3748   19.8927 H   0  0  0  0  0  0  0  0  0  0  0  0
  -13.8453  -20.5354   21.0408 H   0  0  0  0  0  0  0  0  0  0  0  0
  -14.7996  -21.1475   23.2632 H   0  0  0  0  0  0  0  0  0  0  0  0
  -13.3896  -22.7131   24.5727 H   0  0  0  0  0  0  0  0  0  0  0  0
  -11.0795  -23.0794   23.8323 H   0  0  0  0  0  0  0  0  0  0  0  0
   -0.2550  -20.4339   13.6709 H   0  0  0  0  0  0  0  0  0  0  0  0
   -1.6230  -20.2958   13.7224 H   0  0  0  0  0  0  0  0  0  0  0  0
  1  2  2  0
  2  3  1  0
  2  4  1  0
  4  5  1  0
  5  6  2  0
  6  7  1  0
  7  8  1  0
  8  9  1  0
  9 10  1  0
 10 11  1  0
 11 12  1  0
 12 13  1  0
 13 14  1  0
 14 15  1  0
 15 16  2  0
 16 17  1  0
 17 18  2  0
 18 19  1  0
 19 20  2  0
 20 21  1  0
 21 22  2  0
  8 23  1  0
 23  4  1  0
 22 14  1  0
 22 17  1  0
  3 24  1  0
  4 25  1  0
  5 26  1  0
  6 27  1  0
  7 28  1  0
  7 29  1  0
  9 30  1  0
  9 31  1  0
 10 32  1  0
 10 33  1  0
 11 34  1  0
 11 35  1  0
 12 36  1  0
 12 37  1  0
 13 38  1  0
 13 39  1  0
 15 40  1  0
 18 41  1  0
 19 42  1  0
 20 43  1  0
 21 44  1  0
 23 45  1  0
 23 46  1  0
M  END
>  <Energy>  (1472) 
1073.6060733461704

>  <compound_id>  (1472) 
17837

>  <target_id>  (1472) 
1

>  <reference_id>  (1472) 
85

>  <inspiration_ids>  (1472) 
[85, 94]

>  <energy_score>  (1472) 
995.9022783783414

>  <distance_score>  (1472) 
9.388102230874496

>  <path>  (1472) 
/opt/xchem-fragalysis-2/maxwin/BulkDock/SCRATCH/511014/C17837-P85/C17837-P85.minimised.mol

>  <scratch_subdir>  (1472) 
/opt/xchem-fragalysis-2/maxwin/BulkDock/SCRATCH/511014/C17837-P85

>  <fragmenstein_runtime>  (1472) 
13.968382358551025

>  <fragmenstein_outcome>  (1472) 
too moved

>  <fragmenstein_mode>  (1472) 
expansion

>  <fragmenstein_error>  (1472) 


$$$$
C17837-P94
     RDKit          3D

 46 48  0  0  0  0  0  0  0  0999 V2000
   -4.2144  -31.5414   22.3334 O   0  0  0  0  0  0  0  0  0  0  0  0
   -3.1788  -30.9099   22.1659 C   0  0  0  0  0  0  0  0  0  0  0  0
   -1.9929  -31.3539   22.6407 O   0  0  0  0  0  0  0  0  0  0  0  0
   -3.1447  -29.5430   21.4912 C   0  0  0  0  0  0  0  0  0  0  0  0
   -1.8418  -29.2594   20.7641 C   0  0  0  0  0  0  0  0  0  0  0  0
   -1.0902  -28.2032   21.0923 C   0  0  0  0  0  0  0  0  0  0  0  0
   -1.5302  -27.2071   22.1267 C   0  0  0  0  0  0  0  0  0  0  0  0
   -2.9893  -27.1758   22.3668 N   0  0  0  0  0  0  0  0  0  0  0  0
   -3.4905  -25.9272   22.9996 C   0  0  0  0  0  0  0  0  0  0  0  0
   -4.9715  -25.2197   23.2099 C   0  0  0  0  0  0  0  0  0  0  0  0
   -5.7309  -23.9460   23.9571 C   0  0  0  0  0  0  0  0  0  0  0  0
   -7.2057  -23.7542   24.5674 C   0  0  0  0  0  0  0  0  0  0  0  0
   -7.5351  -23.1940   26.3549 C   0  0  0  0  0  0  0  0  0  0  0  0
   -9.1153  -23.8480   26.9965 N   0  0  0  0  0  0  0  0  0  0  0  0
   -9.6487  -23.5327   28.2043 C   0  0  0  0  0  0  0  0  0  0  0  0
  -10.2145  -24.5876   28.7335 N   0  0  0  0  0  0  0  0  0  0  0  0
  -10.8484  -25.0366   27.6336 C   0  0  0  0  0  0  0  0  0  0  0  0
  -11.9817  -25.8389   27.5598 C   0  0  0  0  0  0  0  0  0  0  0  0
  -12.7314  -25.7746   26.3915 C   0  0  0  0  0  0  0  0  0  0  0  0
  -12.2591  -25.0894   25.2751 C   0  0  0  0  0  0  0  0  0  0  0  0
  -11.0098  -24.4577   25.2780 C   0  0  0  0  0  0  0  0  0  0  0  0
  -10.3095  -24.4245   26.4874 C   0  0  0  0  0  0  0  0  0  0  0  0
   -3.5639  -28.4867   22.5648 C   0  0  0  0  0  0  0  0  0  0  0  0
   -1.2469  -30.7447   22.4761 H   0  0  0  0  0  0  0  0  0  0  0  0
   -3.9138  -29.5719   20.7065 H   0  0  0  0  0  0  0  0  0  0  0  0
   -1.5281  -29.9430   19.9790 H   0  0  0  0  0  0  0  0  0  0  0  0
   -0.1455  -28.0200   20.5864 H   0  0  0  0  0  0  0  0  0  0  0  0
   -0.9840  -27.3689   23.0624 H   0  0  0  0  0  0  0  0  0  0  0  0
   -1.2038  -26.2705   21.6988 H   0  0  0  0  0  0  0  0  0  0  0  0
   -3.1137  -25.2257   22.3046 H   0  0  0  0  0  0  0  0  0  0  0  0
   -2.9554  -25.9196   23.9556 H   0  0  0  0  0  0  0  0  0  0  0  0
   -4.6807  -25.3703   24.2023 H   0  0  0  0  0  0  0  0  0  0  0  0
   -5.6872  -25.8761   22.7641 H   0  0  0  0  0  0  0  0  0  0  0  0
   -5.7576  -23.2277   23.1675 H   0  0  0  0  0  0  0  0  0  0  0  0
   -5.1127  -23.5682   24.7723 H   0  0  0  0  0  0  0  0  0  0  0  0
   -7.6603  -23.0497   23.8330 H   0  0  0  0  0  0  0  0  0  0  0  0
   -7.9711  -24.4240   24.2436 H   0  0  0  0  0  0  0  0  0  0  0  0
   -7.6087  -22.2154   26.8149 H   0  0  0  0  0  0  0  0  0  0  0  0
   -6.6567  -23.3202   27.0262 H   0  0  0  0  0  0  0  0  0  0  0  0
   -9.8613  -22.5024   28.4554 H   0  0  0  0  0  0  0  0  0  0  0  0
  -12.3312  -26.3431   28.4451 H   0  0  0  0  0  0  0  0  0  0  0  0
  -13.7175  -26.2326   26.3673 H   0  0  0  0  0  0  0  0  0  0  0  0
  -12.8893  -25.0296   24.3908 H   0  0  0  0  0  0  0  0  0  0  0  0
  -10.6634  -23.9223   24.4056 H   0  0  0  0  0  0  0  0  0  0  0  0
   -4.6531  -28.4240   22.4786 H   0  0  0  0  0  0  0  0  0  0  0  0
   -3.3322  -28.8432   23.5763 H   0  0  0  0  0  0  0  0  0  0  0  0
  1  2  2  0
  2  3  1  0
  2  4  1  0
  4  5  1  0
  5  6  2  0
  6  7  1  0
  7  8  1  0
  8  9  1  0
  9 10  1  0
 10 11  1  0
 11 12  1  0
 12 13  1  0
 13 14  1  0
 14 15  1  0
 15 16  2  0
 16 17  1  0
 17 18  2  0
 18 19  1  0
 19 20  2  0
 20 21  1  0
 21 22  2  0
  8 23  1  0
 23  4  1  0
 22 14  1  0
 22 17  1  0
  3 24  1  0
  4 25  1  0
  5 26  1  0
  6 27  1  0
  7 28  1  0
  7 29  1  0
  9 30  1  0
  9 31  1  0
 10 32  1  0
 10 33  1  0
 11 34  1  0
 11 35  1  0
 12 36  1  0
 12 37  1  0
 13 38  1  0
 13 39  1  0
 15 40  1  0
 18 41  1  0
 19 42  1  0
 20 43  1  0
 21 44  1  0
 23 45  1  0
 23 46  1  0
M  END
>  <Energy>  (1473) 
299.15540451237428

>  <compound_id>  (1473) 
17837

>  <target_id>  (1473) 
1

>  <reference_id>  (1473) 
94

>  <inspiration_ids>  (1473) 
[85, 94]

>  <energy_score>  (1473) 
221.45160954455366

>  <distance_score>  (1473) 
12.006200838075225

>  <path>  (1473) 
/opt/xchem-fragalysis-2/maxwin/BulkDock/SCRATCH/511014/C17837-P94/C17837-P94.minimised.mol

>  <scratch_subdir>  (1473) 
/opt/xchem-fragalysis-2/maxwin/BulkDock/SCRATCH/511014/C17837-P94

>  <fragmenstein_runtime>  (1473) 
35.40066719055176

>  <fragmenstein_outcome>  (1473) 
too moved

>  <fragmenstein_mode>  (1473) 
expansion

>  <fragmenstein_error>  (1473) 


$$$$
C17818-P85
     RDKit          3D

 44 46  0  0  0  0  0  0  0  0999 V2000
   -6.5145  -14.1819   23.5460 C   0  0  0  0  0  0  0  0  0  0  0  0
   -7.2113  -15.0375   22.6502 O   0  0  0  0  0  0  0  0  0  0  0  0
   -6.4737  -16.2450   22.3982 C   0  0  0  0  0  0  0  0  0  0  0  0
   -7.2564  -17.1578   21.4192 C   0  0  0  0  0  0  0  0  0  0  0  0
   -7.2880  -16.4546   20.0669 C   0  0  0  0  0  0  0  0  0  0  0  0
   -6.4955  -16.7727   19.0440 C   0  0  0  0  0  0  0  0  0  0  0  0
   -5.5996  -17.9271   19.2727 C   0  0  0  0  0  0  0  0  0  0  0  0
   -6.3194  -19.0348   20.0411 C   0  0  0  0  0  0  0  0  0  0  0  0
   -6.6508  -18.5865   21.4107 N   0  0  0  0  0  0  0  0  0  0  0  0
   -7.4471  -19.6152   22.5627 S   0  0  0  0  0  0  0  0  0  0  0  0
   -8.7069  -19.9174   21.8897 O   0  0  0  0  0  0  0  0  0  0  0  0
   -7.5111  -18.6889   23.6784 O   0  0  0  0  0  0  0  0  0  0  0  0
   -6.4196  -21.5932   23.1658 C   0  0  0  0  0  0  0  0  0  0  0  0
   -6.7869  -23.4141   24.0100 C   0  0  0  0  0  0  0  0  0  0  0  0
   -7.7533  -23.4713   25.6692 N   0  0  0  0  0  0  0  0  0  0  0  0
   -7.5398  -22.7513   26.9637 C   0  0  0  0  0  0  0  0  0  0  0  0
   -8.4233  -22.9386   27.9135 N   0  0  0  0  0  0  0  0  0  0  0  0
   -9.4365  -23.7984   27.5696 C   0  0  0  0  0  0  0  0  0  0  0  0
  -10.6953  -24.0773   28.2317 C   0  0  0  0  0  0  0  0  0  0  0  0
  -11.6250  -24.9752   27.7649 C   0  0  0  0  0  0  0  0  0  0  0  0
  -11.4698  -25.3352   26.4737 C   0  0  0  0  0  0  0  0  0  0  0  0
  -10.3822  -24.7828   25.7763 C   0  0  0  0  0  0  0  0  0  0  0  0
   -9.1580  -24.2899   26.2833 C   0  0  0  0  0  0  0  0  0  0  0  0
   -6.3720  -14.6736   24.5131 H   0  0  0  0  0  0  0  0  0  0  0  0
   -5.5475  -13.8913   23.1243 H   0  0  0  0  0  0  0  0  0  0  0  0
   -7.1143  -13.2806   23.6978 H   0  0  0  0  0  0  0  0  0  0  0  0
   -6.2947  -16.7369   23.3561 H   0  0  0  0  0  0  0  0  0  0  0  0
   -5.4922  -15.9891   21.9777 H   0  0  0  0  0  0  0  0  0  0  0  0
   -8.3078  -17.2234   21.7292 H   0  0  0  0  0  0  0  0  0  0  0  0
   -7.9458  -15.5912   19.9929 H   0  0  0  0  0  0  0  0  0  0  0  0
   -6.4672  -16.1738   18.1423 H   0  0  0  0  0  0  0  0  0  0  0  0
   -5.1994  -18.3398   18.3516 H   0  0  0  0  0  0  0  0  0  0  0  0
   -4.7949  -17.5109   19.8745 H   0  0  0  0  0  0  0  0  0  0  0  0
   -5.6564  -19.8963   20.1064 H   0  0  0  0  0  0  0  0  0  0  0  0
   -7.2398  -19.2859   19.5104 H   0  0  0  0  0  0  0  0  0  0  0  0
   -5.6364  -21.6956   22.4181 H   0  0  0  0  0  0  0  0  0  0  0  0
   -7.5155  -21.7272   23.0320 H   0  0  0  0  0  0  0  0  0  0  0  0
   -5.9125  -23.1800   24.6744 H   0  0  0  0  0  0  0  0  0  0  0  0
   -6.2960  -24.2842   23.5573 H   0  0  0  0  0  0  0  0  0  0  0  0
   -6.5827  -22.2808   27.1855 H   0  0  0  0  0  0  0  0  0  0  0  0
  -11.0101  -23.5296   29.1149 H   0  0  0  0  0  0  0  0  0  0  0  0
  -12.5286  -25.1885   28.3237 H   0  0  0  0  0  0  0  0  0  0  0  0
  -12.3080  -25.7897   25.9571 H   0  0  0  0  0  0  0  0  0  0  0  0
  -10.6653  -24.3031   24.8678 H   0  0  0  0  0  0  0  0  0  0  0  0
  1  2  1  0
  2  3  1  0
  3  4  1  0
  4  5  1  0
  5  6  2  0
  6  7  1  0
  7  8  1  0
  8  9  1  0
  9 10  1  0
 10 11  2  0
 10 12  2  0
 10 13  1  0
 13 14  1  0
 14 15  1  0
 15 16  1  0
 16 17  2  0
 17 18  1  0
 18 19  2  0
 19 20  1  0
 20 21  2  0
 21 22  1  0
 22 23  2  0
  9  4  1  0
 23 15  1  0
 23 18  1  0
  1 24  1  0
  1 25  1  0
  1 26  1  0
  3 27  1  0
  3 28  1  0
  4 29  1  0
  5 30  1  0
  6 31  1  0
  7 32  1  0
  7 33  1  0
  8 34  1  0
  8 35  1  0
 13 36  1  0
 13 37  1  0
 14 38  1  0
 14 39  1  0
 16 40  1  0
 19 41  1  0
 20 42  1  0
 21 43  1  0
 22 44  1  0
M  END
>  <Energy>  (1474) 
374.35513838413647

>  <compound_id>  (1474) 
17818

>  <target_id>  (1474) 
1

>  <reference_id>  (1474) 
85

>  <inspiration_ids>  (1474) 
[85, 94]

>  <energy_score>  (1474) 
338.4460563734556

>  <distance_score>  (1474) 
10.828302614255776

>  <path>  (1474) 
/opt/xchem-fragalysis-2/maxwin/BulkDock/SCRATCH/511014/C17818-P85/C17818-P85.minimised.mol

>  <scratch_subdir>  (1474) 
/opt/xchem-fragalysis-2/maxwin/BulkDock/SCRATCH/511014/C17818-P85

>  <fragmenstein_runtime>  (1474) 
11.382203578948975

>  <fragmenstein_outcome>  (1474) 
too moved

>  <fragmenstein_mode>  (1474) 
expansion

>  <fragmenstein_error>  (1474) 


$$$$
C17818-P94
     RDKit          3D

 44 46  0  0  0  0  0  0  0  0999 V2000
   -2.6865  -13.9101   18.5114 C   0  0  0  0  0  0  0  0  0  0  0  0
   -2.4685  -15.2725   18.1691 O   0  0  0  0  0  0  0  0  0  0  0  0
   -2.2465  -16.0737   19.3379 C   0  0  0  0  0  0  0  0  0  0  0  0
   -2.1135  -17.6001   19.0102 C   0  0  0  0  0  0  0  0  0  0  0  0
   -0.7098  -17.8449   18.1263 C   0  0  0  0  0  0  0  0  0  0  0  0
   -0.5367  -18.3885   16.8646 C   0  0  0  0  0  0  0  0  0  0  0  0
   -2.0445  -18.5341   15.6940 C   0  0  0  0  0  0  0  0  0  0  0  0
   -3.5809  -18.1175   16.8543 C   0  0  0  0  0  0  0  0  0  0  0  0
   -3.4570  -18.2115   18.3902 N   0  0  0  0  0  0  0  0  0  0  0  0
   -4.7807  -18.5078   19.4230 S   0  0  0  0  0  0  0  0  0  0  0  0
   -3.9248  -19.6202   19.8330 O   0  0  0  0  0  0  0  0  0  0  0  0
   -4.9552  -17.1570   19.9343 O   0  0  0  0  0  0  0  0  0  0  0  0
   -6.2719  -19.4445   20.6379 C   0  0  0  0  0  0  0  0  0  0  0  0
   -6.6719  -19.7286   22.5038 C   0  0  0  0  0  0  0  0  0  0  0  0
   -6.3633  -21.2345   23.4826 N   0  0  0  0  0  0  0  0  0  0  0  0
   -5.5479  -21.0152   24.6951 C   0  0  0  0  0  0  0  0  0  0  0  0
   -5.6356  -21.9212   25.6360 N   0  0  0  0  0  0  0  0  0  0  0  0
   -6.6569  -22.7899   25.3435 C   0  0  0  0  0  0  0  0  0  0  0  0
   -7.6182  -23.1456   26.4910 C   0  0  0  0  0  0  0  0  0  0  0  0
   -9.1734  -24.0097   26.3739 C   0  0  0  0  0  0  0  0  0  0  0  0
   -9.6688  -24.2005   24.8153 C   0  0  0  0  0  0  0  0  0  0  0  0
   -8.6286  -23.4861   23.6127 C   0  0  0  0  0  0  0  0  0  0  0  0
   -7.1463  -22.6922   23.9194 C   0  0  0  0  0  0  0  0  0  0  0  0
   -2.8249  -13.3427   17.5872 H   0  0  0  0  0  0  0  0  0  0  0  0
   -3.5891  -13.8077   19.1215 H   0  0  0  0  0  0  0  0  0  0  0  0
   -1.8211  -13.5046   19.0443 H   0  0  0  0  0  0  0  0  0  0  0  0
   -3.0613  -15.8889   20.0366 H   0  0  0  0  0  0  0  0  0  0  0  0
   -1.3115  -15.7314   19.7974 H   0  0  0  0  0  0  0  0  0  0  0  0
   -1.9672  -18.0843   19.9707 H   0  0  0  0  0  0  0  0  0  0  0  0
    0.1865  -17.4994   18.6454 H   0  0  0  0  0  0  0  0  0  0  0  0
    0.4460  -18.5359   16.4155 H   0  0  0  0  0  0  0  0  0  0  0  0
   -1.8252  -19.0500   14.7736 H   0  0  0  0  0  0  0  0  0  0  0  0
   -2.3727  -17.7938   14.9136 H   0  0  0  0  0  0  0  0  0  0  0  0
   -4.4193  -18.7603   16.7814 H   0  0  0  0  0  0  0  0  0  0  0  0
   -3.9824  -17.1187   16.6063 H   0  0  0  0  0  0  0  0  0  0  0  0
   -7.1948  -19.0470   20.2030 H   0  0  0  0  0  0  0  0  0  0  0  0
   -5.9712  -20.4019   20.2592 H   0  0  0  0  0  0  0  0  0  0  0  0
   -7.7659  -19.7733   22.5341 H   0  0  0  0  0  0  0  0  0  0  0  0
   -6.3199  -18.9376   23.1763 H   0  0  0  0  0  0  0  0  0  0  0  0
   -5.0852  -20.0575   24.9071 H   0  0  0  0  0  0  0  0  0  0  0  0
   -7.3470  -22.7237   27.4599 H   0  0  0  0  0  0  0  0  0  0  0  0
   -9.8168  -24.1487   27.2393 H   0  0  0  0  0  0  0  0  0  0  0  0
  -10.7352  -24.3692   24.7089 H   0  0  0  0  0  0  0  0  0  0  0  0
   -9.2372  -23.0402   22.8236 H   0  0  0  0  0  0  0  0  0  0  0  0
  1  2  1  0
  2  3  1  0
  3  4  1  0
  4  5  1  0
  5  6  2  0
  6  7  1  0
  7  8  1  0
  8  9  1  0
  9 10  1  0
 10 11  2  0
 10 12  2  0
 10 13  1  0
 13 14  1  0
 14 15  1  0
 15 16  1  0
 16 17  2  0
 17 18  1  0
 18 19  2  0
 19 20  1  0
 20 21  2  0
 21 22  1  0
 22 23  2  0
  9  4  1  0
 23 15  1  0
 23 18  1  0
  1 24  1  0
  1 25  1  0
  1 26  1  0
  3 27  1  0
  3 28  1  0
  4 29  1  0
  5 30  1  0
  6 31  1  0
  7 32  1  0
  7 33  1  0
  8 34  1  0
  8 35  1  0
 13 36  1  0
 13 37  1  0
 14 38  1  0
 14 39  1  0
 16 40  1  0
 19 41  1  0
 20 42  1  0
 21 43  1  0
 22 44  1  0
M  END
>  <Energy>  (1475) 
597.90452868842124

>  <compound_id>  (1475) 
17818

>  <target_id>  (1475) 
1

>  <reference_id>  (1475) 
94

>  <inspiration_ids>  (1475) 
[85, 94]

>  <energy_score>  (1475) 
561.9954466777358

>  <distance_score>  (1475) 
9.743589164415924

>  <path>  (1475) 
/opt/xchem-fragalysis-2/maxwin/BulkDock/SCRATCH/511014/C17818-P94/C17818-P94.minimised.mol

>  <scratch_subdir>  (1475) 
/opt/xchem-fragalysis-2/maxwin/BulkDock/SCRATCH/511014/C17818-P94

>  <fragmenstein_runtime>  (1475) 
19.269665956497192

>  <fragmenstein_outcome>  (1475) 
too moved

>  <fragmenstein_mode>  (1475) 
expansion

>  <fragmenstein_error>  (1475) 


$$$$
C17837-P85
     RDKit          3D

 46 48  0  0  0  0  0  0  0  0999 V2000
    2.3584  -20.8563   11.5829 O   0  0  0  0  0  0  0  0  0  0  0  0
    1.4267  -20.0826   11.3896 C   0  0  0  0  0  0  0  0  0  0  0  0
    1.1516  -19.8091   10.0993 O   0  0  0  0  0  0  0  0  0  0  0  0
    0.5530  -19.2629   12.4242 C   0  0  0  0  0  0  0  0  0  0  0  0
    1.5821  -19.2391   13.4608 C   0  0  0  0  0  0  0  0  0  0  0  0
    1.0931  -18.9094   14.6407 C   0  0  0  0  0  0  0  0  0  0  0  0
   -0.7477  -18.5756   15.2208 C   0  0  0  0  0  0  0  0  0  0  0  0
   -1.9969  -18.5857   14.6827 N   0  0  0  0  0  0  0  0  0  0  0  0
   -3.4776  -18.2540   16.0340 C   0  0  0  0  0  0  0  0  0  0  0  0
   -4.5274  -18.6846   17.7416 C   0  0  0  0  0  0  0  0  0  0  0  0
   -6.1394  -18.7471   18.9145 C   0  0  0  0  0  0  0  0  0  0  0  0
   -6.6855  -19.4139   20.6387 C   0  0  0  0  0  0  0  0  0  0  0  0
   -8.0695  -20.0116   21.9424 C   0  0  0  0  0  0  0  0  0  0  0  0
   -9.4846  -21.2840   22.0268 N   0  0  0  0  0  0  0  0  0  0  0  0
  -10.0440  -21.6494   20.7403 C   0  0  0  0  0  0  0  0  0  0  0  0
  -11.3392  -21.7615   20.5958 N   0  0  0  0  0  0  0  0  0  0  0  0
  -11.8442  -21.1188   21.6486 C   0  0  0  0  0  0  0  0  0  0  0  0
  -13.1978  -20.8078   21.8668 C   0  0  0  0  0  0  0  0  0  0  0  0
  -13.7389  -21.2458   23.0580 C   0  0  0  0  0  0  0  0  0  0  0  0
  -12.9512  -22.0791   23.8086 C   0  0  0  0  0  0  0  0  0  0  0  0
  -11.6003  -22.2135   23.4676 C   0  0  0  0  0  0  0  0  0  0  0  0
  -10.9015  -21.2845   22.6848 C   0  0  0  0  0  0  0  0  0  0  0  0
   -0.8959  -19.5737   13.5205 C   0  0  0  0  0  0  0  0  0  0  0  0
    1.7653  -20.3887    9.6063 H   0  0  0  0  0  0  0  0  0  0  0  0
    0.4702  -18.2944   11.9108 H   0  0  0  0  0  0  0  0  0  0  0  0
    2.6474  -19.4035   13.3390 H   0  0  0  0  0  0  0  0  0  0  0  0
    1.8288  -18.9894   15.4506 H   0  0  0  0  0  0  0  0  0  0  0  0
   -0.9414  -17.6541   15.0419 H   0  0  0  0  0  0  0  0  0  0  0  0
   -0.7746  -18.7965   16.3181 H   0  0  0  0  0  0  0  0  0  0  0  0
   -2.9534  -17.8969   16.9254 H   0  0  0  0  0  0  0  0  0  0  0  0
   -3.8194  -17.2689   15.6453 H   0  0  0  0  0  0  0  0  0  0  0  0
   -4.6825  -17.6013   17.8053 H   0  0  0  0  0  0  0  0  0  0  0  0
   -4.9237  -19.5716   17.3716 H   0  0  0  0  0  0  0  0  0  0  0  0
   -6.1626  -17.7087   19.2049 H   0  0  0  0  0  0  0  0  0  0  0  0
   -7.0188  -18.8950   18.2989 H   0  0  0  0  0  0  0  0  0  0  0  0
   -6.4457  -18.4970   21.2026 H   0  0  0  0  0  0  0  0  0  0  0  0
   -5.7938  -20.0366   20.7583 H   0  0  0  0  0  0  0  0  0  0  0  0
   -8.3843  -19.1251   22.5109 H   0  0  0  0  0  0  0  0  0  0  0  0
   -7.5450  -20.4595   22.7791 H   0  0  0  0  0  0  0  0  0  0  0  0
   -9.4610  -21.3748   19.8927 H   0  0  0  0  0  0  0  0  0  0  0  0
  -13.8453  -20.5354   21.0408 H   0  0  0  0  0  0  0  0  0  0  0  0
  -14.7996  -21.1475   23.2632 H   0  0  0  0  0  0  0  0  0  0  0  0
  -13.3896  -22.7131   24.5727 H   0  0  0  0  0  0  0  0  0  0  0  0
  -11.0795  -23.0794   23.8323 H   0  0  0  0  0  0  0  0  0  0  0  0
   -0.2550  -20.4339   13.6709 H   0  0  0  0  0  0  0  0  0  0  0  0
   -1.6230  -20.2958   13.7224 H   0  0  0  0  0  0  0  0  0  0  0  0
  1  2  2  0
  2  3  1  0
  2  4  1  0
  4  5  1  0
  5  6  2  0
  6  7  1  0
  7  8  1  0
  8  9  1  0
  9 10  1  0
 10 11  1  0
 11 12  1  0
 12 13  1  0
 13 14  1  0
 14 15  1  0
 15 16  2  0
 16 17  1  0
 17 18  2  0
 18 19  1  0
 19 20  2  0
 20 21  1  0
 21 22  2  0
  8 23  1  0
 23  4  1  0
 22 14  1  0
 22 17  1  0
  3 24  1  0
  4 25  1  0
  5 26  1  0
  6 27  1  0
  7 28  1  0
  7 29  1  0
  9 30  1  0
  9 31  1  0
 10 32  1  0
 10 33  1  0
 11 34  1  0
 11 35  1  0
 12 36  1  0
 12 37  1  0
 13 38  1  0
 13 39  1  0
 15 40  1  0
 18 41  1  0
 19 42  1  0
 20 43  1  0
 21 44  1  0
 23 45  1  0
 23 46  1  0
M  END
>  <Energy>  (1476) 
1073.6060733461704

>  <compound_id>  (1476) 
17837

>  <target_id>  (1476) 
1

>  <reference_id>  (1476) 
85

>  <inspiration_ids>  (1476) 
[85, 94]

>  <energy_score>  (1476) 
995.9022783783414

>  <distance_score>  (1476) 
9.388102230874496

>  <path>  (1476) 
/opt/xchem-fragalysis-2/maxwin/BulkDock/SCRATCH/511014/C17837-P85/C17837-P85.minimised.mol

>  <scratch_subdir>  (1476) 
/opt/xchem-fragalysis-2/maxwin/BulkDock/SCRATCH/511014/C17837-P85

>  <fragmenstein_runtime>  (1476) 
15.073541641235352

>  <fragmenstein_outcome>  (1476) 
too moved

>  <fragmenstein_mode>  (1476) 
expansion

>  <fragmenstein_error>  (1476) 


$$$$
C17837-P94
     RDKit          3D

 46 48  0  0  0  0  0  0  0  0999 V2000
   -4.2144  -31.5414   22.3334 O   0  0  0  0  0  0  0  0  0  0  0  0
   -3.1788  -30.9099   22.1659 C   0  0  0  0  0  0  0  0  0  0  0  0
   -1.9929  -31.3539   22.6407 O   0  0  0  0  0  0  0  0  0  0  0  0
   -3.1447  -29.5430   21.4912 C   0  0  0  0  0  0  0  0  0  0  0  0
   -1.8418  -29.2594   20.7641 C   0  0  0  0  0  0  0  0  0  0  0  0
   -1.0902  -28.2032   21.0923 C   0  0  0  0  0  0  0  0  0  0  0  0
   -1.5302  -27.2071   22.1267 C   0  0  0  0  0  0  0  0  0  0  0  0
   -2.9893  -27.1758   22.3668 N   0  0  0  0  0  0  0  0  0  0  0  0
   -3.4905  -25.9272   22.9996 C   0  0  0  0  0  0  0  0  0  0  0  0
   -4.9715  -25.2197   23.2099 C   0  0  0  0  0  0  0  0  0  0  0  0
   -5.7309  -23.9460   23.9571 C   0  0  0  0  0  0  0  0  0  0  0  0
   -7.2057  -23.7542   24.5674 C   0  0  0  0  0  0  0  0  0  0  0  0
   -7.5351  -23.1940   26.3549 C   0  0  0  0  0  0  0  0  0  0  0  0
   -9.1153  -23.8480   26.9965 N   0  0  0  0  0  0  0  0  0  0  0  0
   -9.6487  -23.5327   28.2043 C   0  0  0  0  0  0  0  0  0  0  0  0
  -10.2145  -24.5876   28.7335 N   0  0  0  0  0  0  0  0  0  0  0  0
  -10.8484  -25.0366   27.6336 C   0  0  0  0  0  0  0  0  0  0  0  0
  -11.9817  -25.8389   27.5598 C   0  0  0  0  0  0  0  0  0  0  0  0
  -12.7314  -25.7746   26.3915 C   0  0  0  0  0  0  0  0  0  0  0  0
  -12.2591  -25.0894   25.2751 C   0  0  0  0  0  0  0  0  0  0  0  0
  -11.0098  -24.4577   25.2780 C   0  0  0  0  0  0  0  0  0  0  0  0
  -10.3095  -24.4245   26.4874 C   0  0  0  0  0  0  0  0  0  0  0  0
   -3.5639  -28.4867   22.5648 C   0  0  0  0  0  0  0  0  0  0  0  0
   -1.2469  -30.7447   22.4761 H   0  0  0  0  0  0  0  0  0  0  0  0
   -3.9138  -29.5719   20.7065 H   0  0  0  0  0  0  0  0  0  0  0  0
   -1.5281  -29.9430   19.9790 H   0  0  0  0  0  0  0  0  0  0  0  0
   -0.1455  -28.0200   20.5864 H   0  0  0  0  0  0  0  0  0  0  0  0
   -0.9840  -27.3689   23.0624 H   0  0  0  0  0  0  0  0  0  0  0  0
   -1.2038  -26.2705   21.6988 H   0  0  0  0  0  0  0  0  0  0  0  0
   -3.1137  -25.2257   22.3046 H   0  0  0  0  0  0  0  0  0  0  0  0
   -2.9554  -25.9196   23.9556 H   0  0  0  0  0  0  0  0  0  0  0  0
   -4.6807  -25.3703   24.2023 H   0  0  0  0  0  0  0  0  0  0  0  0
   -5.6872  -25.8761   22.7641 H   0  0  0  0  0  0  0  0  0  0  0  0
   -5.7576  -23.2277   23.1675 H   0  0  0  0  0  0  0  0  0  0  0  0
   -5.1127  -23.5682   24.7723 H   0  0  0  0  0  0  0  0  0  0  0  0
   -7.6603  -23.0497   23.8330 H   0  0  0  0  0  0  0  0  0  0  0  0
   -7.9711  -24.4240   24.2436 H   0  0  0  0  0  0  0  0  0  0  0  0
   -7.6087  -22.2154   26.8149 H   0  0  0  0  0  0  0  0  0  0  0  0
   -6.6567  -23.3202   27.0262 H   0  0  0  0  0  0  0  0  0  0  0  0
   -9.8613  -22.5024   28.4554 H   0  0  0  0  0  0  0  0  0  0  0  0
  -12.3312  -26.3431   28.4451 H   0  0  0  0  0  0  0  0  0  0  0  0
  -13.7175  -26.2326   26.3673 H   0  0  0  0  0  0  0  0  0  0  0  0
  -12.8893  -25.0296   24.3908 H   0  0  0  0  0  0  0  0  0  0  0  0
  -10.6634  -23.9223   24.4056 H   0  0  0  0  0  0  0  0  0  0  0  0
   -4.6531  -28.4240   22.4786 H   0  0  0  0  0  0  0  0  0  0  0  0
   -3.3322  -28.8432   23.5763 H   0  0  0  0  0  0  0  0  0  0  0  0
  1  2  2  0
  2  3  1  0
  2  4  1  0
  4  5  1  0
  5  6  2  0
  6  7  1  0
  7  8  1  0
  8  9  1  0
  9 10  1  0
 10 11  1  0
 11 12  1  0
 12 13  1  0
 13 14  1  0
 14 15  1  0
 15 16  2  0
 16 17  1  0
 17 18  2  0
 18 19  1  0
 19 20  2  0
 20 21  1  0
 21 22  2  0
  8 23  1  0
 23  4  1  0
 22 14  1  0
 22 17  1  0
  3 24  1  0
  4 25  1  0
  5 26  1  0
  6 27  1  0
  7 28  1  0
  7 29  1  0
  9 30  1  0
  9 31  1  0
 10 32  1  0
 10 33  1  0
 11 34  1  0
 11 35  1  0
 12 36  1  0
 12 37  1  0
 13 38  1  0
 13 39  1  0
 15 40  1  0
 18 41  1  0
 19 42  1  0
 20 43  1  0
 21 44  1  0
 23 45  1  0
 23 46  1  0
M  END
>  <Energy>  (1477) 
299.15540451237428

>  <compound_id>  (1477) 
17837

>  <target_id>  (1477) 
1

>  <reference_id>  (1477) 
94

>  <inspiration_ids>  (1477) 
[85, 94]

>  <energy_score>  (1477) 
221.45160954455366

>  <distance_score>  (1477) 
12.006200838075225

>  <path>  (1477) 
/opt/xchem-fragalysis-2/maxwin/BulkDock/SCRATCH/511014/C17837-P94/C17837-P94.minimised.mol

>  <scratch_subdir>  (1477) 
/opt/xchem-fragalysis-2/maxwin/BulkDock/SCRATCH/511014/C17837-P94

>  <fragmenstein_runtime>  (1477) 
33.67914414405823

>  <fragmenstein_outcome>  (1477) 
too moved

>  <fragmenstein_mode>  (1477) 
expansion

>  <fragmenstein_error>  (1477) 


$$$$
C17838-P85
     RDKit          3D

 47 49  0  0  0  0  0  0  0  0999 V2000
   -3.9508  -21.1794   20.9364 O   0  0  0  0  0  0  0  0  0  0  0  0
   -5.0417  -20.7641   20.9895 C   0  0  0  0  0  0  0  0  0  0  0  0
   -6.0291  -21.5320   22.7770 C   0  0  0  0  0  0  0  0  0  0  0  0
   -6.9308  -23.2696   23.4389 C   0  0  0  0  0  0  0  0  0  0  0  0
   -7.9878  -23.9635   25.0618 C   0  0  0  0  0  0  0  0  0  0  0  0
   -9.5921  -24.4822   26.0325 N   0  0  0  0  0  0  0  0  0  0  0  0
  -10.4883  -25.6281   25.9677 C   0  0  0  0  0  0  0  0  0  0  0  0
  -10.9273  -26.1437   27.0926 N   0  0  0  0  0  0  0  0  0  0  0  0
  -10.8587  -25.1495   27.9610 C   0  0  0  0  0  0  0  0  0  0  0  0
  -11.4981  -25.1783   29.2159 C   0  0  0  0  0  0  0  0  0  0  0  0
  -11.9682  -23.9927   29.7415 C   0  0  0  0  0  0  0  0  0  0  0  0
  -11.8308  -22.8496   28.9822 C   0  0  0  0  0  0  0  0  0  0  0  0
  -11.1110  -22.8656   27.7720 C   0  0  0  0  0  0  0  0  0  0  0  0
  -10.3408  -23.9973   27.3229 C   0  0  0  0  0  0  0  0  0  0  0  0
   -5.4907  -19.5937   19.5701 N   0  0  0  0  0  0  0  0  0  0  0  0
   -4.4957  -19.0188   17.8908 C   0  0  0  0  0  0  0  0  0  0  0  0
   -3.2273  -18.3838   16.2606 C   0  0  0  0  0  0  0  0  0  0  0  0
   -1.4744  -18.6294   15.0575 N   0  0  0  0  0  0  0  0  0  0  0  0
    0.5245  -18.8101   14.7777 C   0  0  0  0  0  0  0  0  0  0  0  0
    1.7001  -19.7482   14.0961 C   0  0  0  0  0  0  0  0  0  0  0  0
    1.7630  -19.7305   12.7842 C   0  0  0  0  0  0  0  0  0  0  0  0
    0.4629  -19.2464   12.3154 C   0  0  0  0  0  0  0  0  0  0  0  0
   -0.9026  -19.5111   13.5759 C   0  0  0  0  0  0  0  0  0  0  0  0
   -6.8692  -20.7655   22.9309 H   0  0  0  0  0  0  0  0  0  0  0  0
   -5.5759  -21.3892   23.7736 H   0  0  0  0  0  0  0  0  0  0  0  0
   -7.8580  -23.2737   22.9086 H   0  0  0  0  0  0  0  0  0  0  0  0
   -6.1762  -24.0347   23.2128 H   0  0  0  0  0  0  0  0  0  0  0  0
   -7.7764  -23.2468   25.8786 H   0  0  0  0  0  0  0  0  0  0  0  0
   -8.7326  -24.2015   24.3266 H   0  0  0  0  0  0  0  0  0  0  0  0
  -10.7916  -26.2558   25.1443 H   0  0  0  0  0  0  0  0  0  0  0  0
  -11.7942  -26.1270   29.6501 H   0  0  0  0  0  0  0  0  0  0  0  0
  -12.5603  -23.9855   30.6507 H   0  0  0  0  0  0  0  0  0  0  0  0
  -12.3565  -21.9438   29.2743 H   0  0  0  0  0  0  0  0  0  0  0  0
  -11.3098  -21.9934   27.1604 H   0  0  0  0  0  0  0  0  0  0  0  0
   -6.4153  -19.2245   19.7494 H   0  0  0  0  0  0  0  0  0  0  0  0
   -5.0382  -19.7300   17.3884 H   0  0  0  0  0  0  0  0  0  0  0  0
   -4.9227  -18.0233   18.0329 H   0  0  0  0  0  0  0  0  0  0  0  0
   -3.0000  -17.6679   17.0677 H   0  0  0  0  0  0  0  0  0  0  0  0
   -3.7253  -17.6640   15.6010 H   0  0  0  0  0  0  0  0  0  0  0  0
    1.0612  -19.2473   15.7522 H   0  0  0  0  0  0  0  0  0  0  0  0
    0.9458  -17.9446   14.4198 H   0  0  0  0  0  0  0  0  0  0  0  0
    2.5064  -20.1316   14.7109 H   0  0  0  0  0  0  0  0  0  0  0  0
    2.5392  -20.1618   12.1725 H   0  0  0  0  0  0  0  0  0  0  0  0
    0.5108  -18.2397   11.8822 H   0  0  0  0  0  0  0  0  0  0  0  0
    0.3970  -19.8986   11.4623 H   0  0  0  0  0  0  0  0  0  0  0  0
   -0.2987  -20.4015   13.6378 H   0  0  0  0  0  0  0  0  0  0  0  0
   -1.6700  -20.2152   13.7569 H   0  0  0  0  0  0  0  0  0  0  0  0
  1  2  2  0
  2  3  1  0
  3  4  1  0
  4  5  1  0
  5  6  1  0
  6  7  1  0
  7  8  2  0
  8  9  1  0
  9 10  2  0
 10 11  1  0
 11 12  2  0
 12 13  1  0
 13 14  2  0
  2 15  1  0
 15 16  1  0
 16 17  1  0
 17 18  1  0
 18 19  1  0
 19 20  1  0
 20 21  2  0
 21 22  1  0
 22 23  1  0
 14  6  1  0
 23 18  1  0
 14  9  1  0
  3 24  1  0
  3 25  1  0
  4 26  1  0
  4 27  1  0
  5 28  1  0
  5 29  1  0
  7 30  1  0
 10 31  1  0
 11 32  1  0
 12 33  1  0
 13 34  1  0
 15 35  1  0
 16 36  1  0
 16 37  1  0
 17 38  1  0
 17 39  1  0
 19 40  1  0
 19 41  1  0
 20 42  1  0
 21 43  1  0
 22 44  1  0
 22 45  1  0
 23 46  1  0
 23 47  1  0
M  END
>  <Energy>  (1478) 
1552.8532097698844

>  <compound_id>  (1478) 
17838

>  <target_id>  (1478) 
1

>  <reference_id>  (1478) 
85

>  <inspiration_ids>  (1478) 
[85, 94]

>  <energy_score>  (1478) 
1495.1420320091565

>  <distance_score>  (1478) 
6.219476645291649

>  <path>  (1478) 
/opt/xchem-fragalysis-2/maxwin/BulkDock/SCRATCH/511014/C17838-P85/C17838-P85.minimised.mol

>  <scratch_subdir>  (1478) 
/opt/xchem-fragalysis-2/maxwin/BulkDock/SCRATCH/511014/C17838-P85

>  <fragmenstein_runtime>  (1478) 
16.689825773239136

>  <fragmenstein_outcome>  (1478) 
too moved

>  <fragmenstein_mode>  (1478) 
expansion

>  <fragmenstein_error>  (1478) 


$$$$
C17838-P94
     RDKit          3D

 47 49  0  0  0  0  0  0  0  0999 V2000
   -6.4458  -17.6837   21.2949 O   0  0  0  0  0  0  0  0  0  0  0  0
   -5.8292  -18.6688   21.6112 C   0  0  0  0  0  0  0  0  0  0  0  0
   -6.1893  -19.1202   23.6592 C   0  0  0  0  0  0  0  0  0  0  0  0
   -5.9142  -19.6783   25.8337 C   0  0  0  0  0  0  0  0  0  0  0  0
   -7.1531  -20.6887   27.3592 C   0  0  0  0  0  0  0  0  0  0  0  0
   -8.1885  -22.3277   27.8487 N   0  0  0  0  0  0  0  0  0  0  0  0
   -9.8709  -22.0648   28.3484 C   0  0  0  0  0  0  0  0  0  0  0  0
  -10.5899  -23.0452   28.8342 N   0  0  0  0  0  0  0  0  0  0  0  0
   -9.8025  -24.1275   28.6356 C   0  0  0  0  0  0  0  0  0  0  0  0
  -10.2616  -25.4235   28.9243 C   0  0  0  0  0  0  0  0  0  0  0  0
  -10.9588  -26.0127   27.8860 C   0  0  0  0  0  0  0  0  0  0  0  0
  -10.9649  -25.3806   26.6620 C   0  0  0  0  0  0  0  0  0  0  0  0
  -10.1281  -24.2508   26.4242 C   0  0  0  0  0  0  0  0  0  0  0  0
   -9.1797  -23.7136   27.4419 C   0  0  0  0  0  0  0  0  0  0  0  0
   -4.6029  -19.4621   20.4336 N   0  0  0  0  0  0  0  0  0  0  0  0
   -3.9552  -18.9214   18.7755 C   0  0  0  0  0  0  0  0  0  0  0  0
   -1.9351  -18.5281   18.5212 C   0  0  0  0  0  0  0  0  0  0  0  0
   -0.2053  -18.9587   17.5922 N   0  0  0  0  0  0  0  0  0  0  0  0
    1.3013  -18.8598   17.9642 C   0  0  0  0  0  0  0  0  0  0  0  0
    2.2804  -20.1585   17.8006 C   0  0  0  0  0  0  0  0  0  0  0  0
    2.9109  -20.4666   16.6721 C   0  0  0  0  0  0  0  0  0  0  0  0
    2.4085  -19.5265   15.6856 C   0  0  0  0  0  0  0  0  0  0  0  0
    0.8812  -19.3115   16.1307 C   0  0  0  0  0  0  0  0  0  0  0  0
   -7.1699  -19.5472   23.3383 H   0  0  0  0  0  0  0  0  0  0  0  0
   -6.3737  -18.0669   23.7511 H   0  0  0  0  0  0  0  0  0  0  0  0
   -5.4386  -19.1683   26.6693 H   0  0  0  0  0  0  0  0  0  0  0  0
   -5.0168  -20.3699   25.6835 H   0  0  0  0  0  0  0  0  0  0  0  0
   -7.4806  -19.8805   28.0430 H   0  0  0  0  0  0  0  0  0  0  0  0
   -7.9272  -21.0447   26.7967 H   0  0  0  0  0  0  0  0  0  0  0  0
  -10.1435  -21.0676   28.3867 H   0  0  0  0  0  0  0  0  0  0  0  0
  -10.4982  -25.7119   29.9457 H   0  0  0  0  0  0  0  0  0  0  0  0
  -11.5827  -26.8793   28.0723 H   0  0  0  0  0  0  0  0  0  0  0  0
  -11.6164  -25.7374   25.8691 H   0  0  0  0  0  0  0  0  0  0  0  0
  -10.2773  -23.8878   25.4167 H   0  0  0  0  0  0  0  0  0  0  0  0
   -4.2559  -20.3215   20.8498 H   0  0  0  0  0  0  0  0  0  0  0  0
   -4.3412  -19.6646   18.1202 H   0  0  0  0  0  0  0  0  0  0  0  0
   -4.4292  -17.9475   18.6306 H   0  0  0  0  0  0  0  0  0  0  0  0
   -1.8926  -17.4504   18.6373 H   0  0  0  0  0  0  0  0  0  0  0  0
   -1.7983  -18.6037   19.6002 H   0  0  0  0  0  0  0  0  0  0  0  0
    1.5862  -19.0422   18.9402 H   0  0  0  0  0  0  0  0  0  0  0  0
    1.6896  -17.9123   17.6029 H   0  0  0  0  0  0  0  0  0  0  0  0
    2.4569  -20.6107   18.7577 H   0  0  0  0  0  0  0  0  0  0  0  0
    3.6270  -21.2558   16.5128 H   0  0  0  0  0  0  0  0  0  0  0  0
    3.0106  -18.6244   15.6536 H   0  0  0  0  0  0  0  0  0  0  0  0
    2.4271  -19.9907   14.6909 H   0  0  0  0  0  0  0  0  0  0  0  0
    0.6336  -18.7093   15.2508 H   0  0  0  0  0  0  0  0  0  0  0  0
    0.8142  -20.4126   16.1524 H   0  0  0  0  0  0  0  0  0  0  0  0
  1  2  2  0
  2  3  1  0
  3  4  1  0
  4  5  1  0
  5  6  1  0
  6  7  1  0
  7  8  2  0
  8  9  1  0
  9 10  2  0
 10 11  1  0
 11 12  2  0
 12 13  1  0
 13 14  2  0
  2 15  1  0
 15 16  1  0
 16 17  1  0
 17 18  1  0
 18 19  1  0
 19 20  1  0
 20 21  2  0
 21 22  1  0
 22 23  1  0
 14  6  1  0
 23 18  1  0
 14  9  1  0
  3 24  1  0
  3 25  1  0
  4 26  1  0
  4 27  1  0
  5 28  1  0
  5 29  1  0
  7 30  1  0
 10 31  1  0
 11 32  1  0
 12 33  1  0
 13 34  1  0
 15 35  1  0
 16 36  1  0
 16 37  1  0
 17 38  1  0
 17 39  1  0
 19 40  1  0
 19 41  1  0
 20 42  1  0
 21 43  1  0
 22 44  1  0
 22 45  1  0
 23 46  1  0
 23 47  1  0
M  END
>  <Energy>  (1479) 
1437.5696641170089

>  <compound_id>  (1479) 
17838

>  <target_id>  (1479) 
1

>  <reference_id>  (1479) 
94

>  <inspiration_ids>  (1479) 
[85, 94]

>  <energy_score>  (1479) 
1379.85848635627

>  <distance_score>  (1479) 
7.1658538964116545

>  <path>  (1479) 
/opt/xchem-fragalysis-2/maxwin/BulkDock/SCRATCH/511014/C17838-P94/C17838-P94.minimised.mol

>  <scratch_subdir>  (1479) 
/opt/xchem-fragalysis-2/maxwin/BulkDock/SCRATCH/511014/C17838-P94

>  <fragmenstein_runtime>  (1479) 
19.344649076461792

>  <fragmenstein_outcome>  (1479) 
too moved

>  <fragmenstein_mode>  (1479) 
expansion

>  <fragmenstein_error>  (1479) 


$$$$
C17820-P85
     RDKit          3D

 39 41  0  0  0  0  0  0  0  0999 V2000
    1.0856  -23.8929   20.9519 O   0  0  0  0  0  0  0  0  0  0  0  0
    1.0064  -22.7784   20.5138 C   0  0  0  0  0  0  0  0  0  0  0  0
    0.4610  -21.6001   21.5480 C   0  0  0  0  0  0  0  0  0  0  0  0
    0.5122  -21.3648   23.2470 C   0  0  0  0  0  0  0  0  0  0  0  0
    0.1592  -22.3229   24.5480 C   0  0  0  0  0  0  0  0  0  0  0  0
    0.1233  -22.2890   26.0652 N   0  0  0  0  0  0  0  0  0  0  0  0
    1.1547  -22.8282   26.8103 C   0  0  0  0  0  0  0  0  0  0  0  0
    0.7780  -23.3082   27.9755 N   0  0  0  0  0  0  0  0  0  0  0  0
   -0.5605  -23.0744   28.0726 C   0  0  0  0  0  0  0  0  0  0  0  0
   -1.4509  -23.4459   29.1061 C   0  0  0  0  0  0  0  0  0  0  0  0
   -2.7992  -23.0833   29.0452 C   0  0  0  0  0  0  0  0  0  0  0  0
   -3.2499  -22.3212   27.9820 C   0  0  0  0  0  0  0  0  0  0  0  0
   -2.3728  -21.9387   26.9519 C   0  0  0  0  0  0  0  0  0  0  0  0
   -1.0152  -22.3658   26.9582 C   0  0  0  0  0  0  0  0  0  0  0  0
    1.2792  -22.2754   19.1851 N   0  0  0  0  0  0  0  0  0  0  0  0
    2.7240  -21.8321   19.0814 C   0  0  0  0  0  0  0  0  0  0  0  0
    2.9964  -20.7266   17.9975 C   0  0  0  0  0  0  0  0  0  0  0  0
    3.0200  -21.3521   16.6663 C   0  0  0  0  0  0  0  0  0  0  0  0
    2.4355  -22.5442   16.6656 C   0  0  0  0  0  0  0  0  0  0  0  0
    2.8472  -23.8254   15.3638 Br  0  0  0  0  0  0  0  0  0  0  0  0
    1.6502  -23.0349   17.8666 C   0  0  0  0  0  0  0  0  0  0  0  0
    0.9130  -20.6770   21.1609 H   0  0  0  0  0  0  0  0  0  0  0  0
   -0.5988  -21.5072   21.2980 H   0  0  0  0  0  0  0  0  0  0  0  0
   -0.1805  -20.5363   23.1797 H   0  0  0  0  0  0  0  0  0  0  0  0
    1.4411  -20.8899   23.5499 H   0  0  0  0  0  0  0  0  0  0  0  0
   -0.8823  -22.2257   24.4008 H   0  0  0  0  0  0  0  0  0  0  0  0
    0.5754  -23.3110   24.3595 H   0  0  0  0  0  0  0  0  0  0  0  0
    2.1588  -22.9000   26.4131 H   0  0  0  0  0  0  0  0  0  0  0  0
   -1.0672  -24.0159   29.9468 H   0  0  0  0  0  0  0  0  0  0  0  0
   -3.4735  -23.3852   29.8408 H   0  0  0  0  0  0  0  0  0  0  0  0
   -4.2934  -22.0269   27.9265 H   0  0  0  0  0  0  0  0  0  0  0  0
   -2.7901  -21.3590   26.1346 H   0  0  0  0  0  0  0  0  0  0  0  0
    2.9216  -21.3281   20.0389 H   0  0  0  0  0  0  0  0  0  0  0  0
    3.4607  -22.6563   19.1126 H   0  0  0  0  0  0  0  0  0  0  0  0
    2.2347  -19.9432   18.0088 H   0  0  0  0  0  0  0  0  0  0  0  0
    3.9816  -20.2880   18.1830 H   0  0  0  0  0  0  0  0  0  0  0  0
    3.6185  -20.9610   15.8523 H   0  0  0  0  0  0  0  0  0  0  0  0
    0.6486  -23.2868   17.4863 H   0  0  0  0  0  0  0  0  0  0  0  0
    2.0494  -24.0103   18.1948 H   0  0  0  0  0  0  0  0  0  0  0  0
  1  2  2  0
  2  3  1  0
  3  4  1  0
  4  5  1  0
  5  6  1  0
  6  7  1  0
  7  8  2  0
  8  9  1  0
  9 10  2  0
 10 11  1  0
 11 12  2  0
 12 13  1  0
 13 14  2  0
  2 15  1  0
 15 16  1  0
 16 17  1  0
 17 18  1  0
 18 19  2  0
 19 20  1  0
 19 21  1  0
 14  6  1  0
 21 15  1  0
 14  9  1  0
  3 22  1  0
  3 23  1  0
  4 24  1  0
  4 25  1  0
  5 26  1  0
  5 27  1  0
  7 28  1  0
 10 29  1  0
 11 30  1  0
 12 31  1  0
 13 32  1  0
 16 33  1  0
 16 34  1  0
 17 35  1  0
 17 36  1  0
 18 37  1  0
 21 38  1  0
 21 39  1  0
M  END
>  <Energy>  (1480) 
184.2606081929859

>  <compound_id>  (1480) 
17820

>  <target_id>  (1480) 
1

>  <reference_id>  (1480) 
85

>  <inspiration_ids>  (1480) 
[85, 94]

>  <energy_score>  (1480) 
144.29943922292114

>  <distance_score>  (1480) 
11.521723030526054

>  <path>  (1480) 
/opt/xchem-fragalysis-2/maxwin/BulkDock/SCRATCH/511014/C17820-P85/C17820-P85.minimised.mol

>  <scratch_subdir>  (1480) 
/opt/xchem-fragalysis-2/maxwin/BulkDock/SCRATCH/511014/C17820-P85

>  <fragmenstein_runtime>  (1480) 
13.681796312332153

>  <fragmenstein_outcome>  (1480) 
too moved

>  <fragmenstein_mode>  (1480) 
expansion

>  <fragmenstein_error>  (1480) 


$$$$
C17820-P94
     RDKit          3D

 39 41  0  0  0  0  0  0  0  0999 V2000
   -1.1040  -17.4856   19.2457 O   0  0  0  0  0  0  0  0  0  0  0  0
   -1.2584  -18.4409   18.5107 C   0  0  0  0  0  0  0  0  0  0  0  0
   -3.1313  -19.0329   18.6390 C   0  0  0  0  0  0  0  0  0  0  0  0
   -3.9427  -20.1129   20.1321 C   0  0  0  0  0  0  0  0  0  0  0  0
   -5.2367  -21.1693   21.2780 C   0  0  0  0  0  0  0  0  0  0  0  0
   -6.0213  -21.8132   22.9887 N   0  0  0  0  0  0  0  0  0  0  0  0
   -5.6380  -23.3124   23.5693 C   0  0  0  0  0  0  0  0  0  0  0  0
   -5.4877  -23.1330   24.8687 N   0  0  0  0  0  0  0  0  0  0  0  0
   -6.7620  -22.9724   25.0766 C   0  0  0  0  0  0  0  0  0  0  0  0
   -7.5562  -23.1551   26.3715 C   0  0  0  0  0  0  0  0  0  0  0  0
   -9.1464  -23.9930   26.3630 C   0  0  0  0  0  0  0  0  0  0  0  0
   -9.7655  -24.1605   24.8273 C   0  0  0  0  0  0  0  0  0  0  0  0
   -8.8576  -23.4208   23.5362 C   0  0  0  0  0  0  0  0  0  0  0  0
   -7.3489  -22.7347   23.7026 C   0  0  0  0  0  0  0  0  0  0  0  0
    0.2624  -19.2498   17.6125 N   0  0  0  0  0  0  0  0  0  0  0  0
    1.0408  -18.9142   15.9617 C   0  0  0  0  0  0  0  0  0  0  0  0
    1.8767  -20.1190   15.3014 C   0  0  0  0  0  0  0  0  0  0  0  0
    3.0995  -20.3585   16.0399 C   0  0  0  0  0  0  0  0  0  0  0  0
    3.0874  -19.7956   17.2364 C   0  0  0  0  0  0  0  0  0  0  0  0
    4.6029  -20.0195   18.3255 Br  0  0  0  0  0  0  0  0  0  0  0  0
    1.8925  -18.9389   17.7553 C   0  0  0  0  0  0  0  0  0  0  0  0
   -3.4553  -18.0773   19.1034 H   0  0  0  0  0  0  0  0  0  0  0  0
   -3.7859  -18.9343   17.7748 H   0  0  0  0  0  0  0  0  0  0  0  0
   -4.7076  -20.2141   19.3771 H   0  0  0  0  0  0  0  0  0  0  0  0
   -3.1190  -20.7697   20.3084 H   0  0  0  0  0  0  0  0  0  0  0  0
   -5.8874  -20.2497   21.0980 H   0  0  0  0  0  0  0  0  0  0  0  0
   -5.1506  -22.0857   20.7818 H   0  0  0  0  0  0  0  0  0  0  0  0
   -5.2794  -24.0667   22.8698 H   0  0  0  0  0  0  0  0  0  0  0  0
   -7.0799  -22.8491   27.3018 H   0  0  0  0  0  0  0  0  0  0  0  0
   -9.7245  -24.1533   27.2700 H   0  0  0  0  0  0  0  0  0  0  0  0
  -10.8347  -24.3571   24.7812 H   0  0  0  0  0  0  0  0  0  0  0  0
   -9.4571  -23.0301   22.7167 H   0  0  0  0  0  0  0  0  0  0  0  0
    0.4397  -18.5940   15.1156 H   0  0  0  0  0  0  0  0  0  0  0  0
    1.7310  -18.0663   16.0704 H   0  0  0  0  0  0  0  0  0  0  0  0
    1.3606  -21.0744   15.3102 H   0  0  0  0  0  0  0  0  0  0  0  0
    2.1196  -19.8652   14.2637 H   0  0  0  0  0  0  0  0  0  0  0  0
    3.9055  -20.9589   15.6391 H   0  0  0  0  0  0  0  0  0  0  0  0
    2.0196  -19.3631   18.7461 H   0  0  0  0  0  0  0  0  0  0  0  0
    2.0998  -17.8635   17.7691 H   0  0  0  0  0  0  0  0  0  0  0  0
  1  2  2  0
  2  3  1  0
  3  4  1  0
  4  5  1  0
  5  6  1  0
  6  7  1  0
  7  8  2  0
  8  9  1  0
  9 10  2  0
 10 11  1  0
 11 12  2  0
 12 13  1  0
 13 14  2  0
  2 15  1  0
 15 16  1  0
 16 17  1  0
 17 18  1  0
 18 19  2  0
 19 20  1  0
 19 21  1  0
 14  6  1  0
 21 15  1  0
 14  9  1  0
  3 22  1  0
  3 23  1  0
  4 24  1  0
  4 25  1  0
  5 26  1  0
  5 27  1  0
  7 28  1  0
 10 29  1  0
 11 30  1  0
 12 31  1  0
 13 32  1  0
 16 33  1  0
 16 34  1  0
 17 35  1  0
 17 36  1  0
 18 37  1  0
 21 38  1  0
 21 39  1  0
M  END
>  <Energy>  (1481) 
1031.8227836507217

>  <compound_id>  (1481) 
17820

>  <target_id>  (1481) 
1

>  <reference_id>  (1481) 
94

>  <inspiration_ids>  (1481) 
[85, 94]

>  <energy_score>  (1481) 
991.861614680634

>  <distance_score>  (1481) 
9.458385968003963

>  <path>  (1481) 
/opt/xchem-fragalysis-2/maxwin/BulkDock/SCRATCH/511014/C17820-P94/C17820-P94.minimised.mol

>  <scratch_subdir>  (1481) 
/opt/xchem-fragalysis-2/maxwin/BulkDock/SCRATCH/511014/C17820-P94

>  <fragmenstein_runtime>  (1481) 
17.637144804000854

>  <fragmenstein_outcome>  (1481) 
too moved

>  <fragmenstein_mode>  (1481) 
expansion

>  <fragmenstein_error>  (1481) 


$$$$
C17823-P85
     RDKit          3D

 38 40  0  0  0  0  0  0  0  0999 V2000
   -7.2146  -18.8776   20.7592 O   0  0  0  0  0  0  0  0  0  0  0  0
   -6.1619  -19.2932   20.5021 C   0  0  0  0  0  0  0  0  0  0  0  0
   -5.4313  -20.5260   21.2005 N   0  0  0  0  0  0  0  0  0  0  0  0
   -5.9668  -21.6333   22.8074 C   0  0  0  0  0  0  0  0  0  0  0  0
   -6.8848  -23.3056   23.5795 C   0  0  0  0  0  0  0  0  0  0  0  0
   -7.6766  -23.5161   25.3554 N   0  0  0  0  0  0  0  0  0  0  0  0
   -7.3657  -22.8199   26.6782 C   0  0  0  0  0  0  0  0  0  0  0  0
   -8.2117  -22.8763   27.6898 N   0  0  0  0  0  0  0  0  0  0  0  0
   -9.2541  -23.7491   27.4285 C   0  0  0  0  0  0  0  0  0  0  0  0
  -10.5335  -23.8986   28.1076 C   0  0  0  0  0  0  0  0  0  0  0  0
  -11.5102  -24.8031   27.7635 C   0  0  0  0  0  0  0  0  0  0  0  0
  -11.4064  -25.2886   26.5120 C   0  0  0  0  0  0  0  0  0  0  0  0
  -10.3492  -24.7866   25.7393 C   0  0  0  0  0  0  0  0  0  0  0  0
   -9.0615  -24.3146   26.1326 C   0  0  0  0  0  0  0  0  0  0  0  0
   -5.1589  -18.6102   19.4705 N   0  0  0  0  0  0  0  0  0  0  0  0
   -5.2518  -17.3510   18.7465 C   0  0  0  0  0  0  0  0  0  0  0  0
   -5.3049  -16.2077   17.2372 C   0  0  0  0  0  0  0  0  0  0  0  0
   -4.2589  -16.7440   16.5595 C   0  0  0  0  0  0  0  0  0  0  0  0
   -4.0941  -17.9956   17.0123 C   0  0  0  0  0  0  0  0  0  0  0  0
   -3.3712  -18.4754   16.0605 F   0  0  0  0  0  0  0  0  0  0  0  0
   -5.2093  -18.9894   18.1162 C   0  0  0  0  0  0  0  0  0  0  0  0
   -4.5014  -20.6064   20.8327 H   0  0  0  0  0  0  0  0  0  0  0  0
   -6.7860  -20.9263   22.9884 H   0  0  0  0  0  0  0  0  0  0  0  0
   -5.3193  -22.1100   22.0700 H   0  0  0  0  0  0  0  0  0  0  0  0
   -7.9110  -23.2540   23.2011 H   0  0  0  0  0  0  0  0  0  0  0  0
   -6.1846  -24.1324   23.5356 H   0  0  0  0  0  0  0  0  0  0  0  0
   -6.3356  -22.4529   26.7975 H   0  0  0  0  0  0  0  0  0  0  0  0
  -10.8341  -23.1978   28.8812 H   0  0  0  0  0  0  0  0  0  0  0  0
  -12.4112  -24.9138   28.3553 H   0  0  0  0  0  0  0  0  0  0  0  0
  -12.2773  -25.7455   26.0539 H   0  0  0  0  0  0  0  0  0  0  0  0
  -10.6998  -24.2807   24.8657 H   0  0  0  0  0  0  0  0  0  0  0  0
   -4.3075  -16.9999   19.1360 H   0  0  0  0  0  0  0  0  0  0  0  0
   -6.2197  -17.2544   19.2587 H   0  0  0  0  0  0  0  0  0  0  0  0
   -5.1344  -15.1398   17.2170 H   0  0  0  0  0  0  0  0  0  0  0  0
   -6.2479  -16.1065   16.6505 H   0  0  0  0  0  0  0  0  0  0  0  0
   -3.9333  -16.2659   15.6395 H   0  0  0  0  0  0  0  0  0  0  0  0
   -4.9341  -19.9887   17.9895 H   0  0  0  0  0  0  0  0  0  0  0  0
   -6.3044  -18.8938   18.0334 H   0  0  0  0  0  0  0  0  0  0  0  0
  1  2  2  0
  2  3  1  0
  3  4  1  0
  4  5  1  0
  5  6  1  0
  6  7  1  0
  7  8  2  0
  8  9  1  0
  9 10  2  0
 10 11  1  0
 11 12  2  0
 12 13  1  0
 13 14  2  0
  2 15  1  0
 15 16  1  0
 16 17  1  0
 17 18  1  0
 18 19  2  0
 19 20  1  0
 19 21  1  0
 14  6  1  0
 21 15  1  0
 14  9  1  0
  3 22  1  0
  4 23  1  0
  4 24  1  0
  5 25  1  0
  5 26  1  0
  7 27  1  0
 10 28  1  0
 11 29  1  0
 12 30  1  0
 13 31  1  0
 16 32  1  0
 16 33  1  0
 17 34  1  0
 17 35  1  0
 18 36  1  0
 21 37  1  0
 21 38  1  0
M  END
>  <Energy>  (1482) 
685.97842077098107

>  <compound_id>  (1482) 
17823

>  <target_id>  (1482) 
1

>  <reference_id>  (1482) 
85

>  <inspiration_ids>  (1482) 
[85, 94]

>  <energy_score>  (1482) 
705.6845046934172

>  <distance_score>  (1482) 
9.374145310530194

>  <path>  (1482) 
/opt/xchem-fragalysis-2/maxwin/BulkDock/SCRATCH/511014/C17823-P85/C17823-P85.minimised.mol

>  <scratch_subdir>  (1482) 
/opt/xchem-fragalysis-2/maxwin/BulkDock/SCRATCH/511014/C17823-P85

>  <fragmenstein_runtime>  (1482) 
8.470064878463745

>  <fragmenstein_outcome>  (1482) 
too moved

>  <fragmenstein_mode>  (1482) 
expansion

>  <fragmenstein_error>  (1482) 


$$$$
C17823-P94
     RDKit          3D

 38 40  0  0  0  0  0  0  0  0999 V2000
   -7.4929  -19.7262   18.6344 O   0  0  0  0  0  0  0  0  0  0  0  0
   -6.4843  -19.7393   19.1031 C   0  0  0  0  0  0  0  0  0  0  0  0
   -6.1904  -19.5113   20.5340 N   0  0  0  0  0  0  0  0  0  0  0  0
   -7.2598  -19.3037   21.9142 C   0  0  0  0  0  0  0  0  0  0  0  0
   -8.4859  -20.8571   22.2501 C   0  0  0  0  0  0  0  0  0  0  0  0
  -10.1075  -21.1493   22.6635 N   0  0  0  0  0  0  0  0  0  0  0  0
  -10.9991  -20.2668   23.2473 C   0  0  0  0  0  0  0  0  0  0  0  0
  -11.9539  -20.9121   23.8548 N   0  0  0  0  0  0  0  0  0  0  0  0
  -12.1233  -21.9475   23.0050 C   0  0  0  0  0  0  0  0  0  0  0  0
  -13.2533  -22.7554   22.8569 C   0  0  0  0  0  0  0  0  0  0  0  0
  -13.4319  -23.3616   21.6159 C   0  0  0  0  0  0  0  0  0  0  0  0
  -12.5000  -23.1667   20.5871 C   0  0  0  0  0  0  0  0  0  0  0  0
  -11.2921  -22.4734   20.7897 C   0  0  0  0  0  0  0  0  0  0  0  0
  -11.0775  -21.9502   22.0605 C   0  0  0  0  0  0  0  0  0  0  0  0
   -5.3178  -20.1714   18.2613 N   0  0  0  0  0  0  0  0  0  0  0  0
   -5.2555  -20.8900   16.5210 C   0  0  0  0  0  0  0  0  0  0  0  0
   -3.4549  -21.3994   15.0571 C   0  0  0  0  0  0  0  0  0  0  0  0
   -2.3320  -19.4274   15.4235 C   0  0  0  0  0  0  0  0  0  0  0  0
   -3.3901  -18.4270   16.3739 C   0  0  0  0  0  0  0  0  0  0  0  0
   -3.7785  -17.2327   15.7769 F   0  0  0  0  0  0  0  0  0  0  0  0
   -4.6252  -18.8671   17.5342 C   0  0  0  0  0  0  0  0  0  0  0  0
   -5.2032  -19.6657   20.6903 H   0  0  0  0  0  0  0  0  0  0  0  0
   -6.6249  -19.3093   22.8017 H   0  0  0  0  0  0  0  0  0  0  0  0
   -7.7192  -18.3172   21.8421 H   0  0  0  0  0  0  0  0  0  0  0  0
   -7.9658  -21.5759   22.9249 H   0  0  0  0  0  0  0  0  0  0  0  0
   -8.7556  -21.1909   21.2201 H   0  0  0  0  0  0  0  0  0  0  0  0
  -10.9707  -19.1923   23.1166 H   0  0  0  0  0  0  0  0  0  0  0  0
  -14.0300  -22.7600   23.6137 H   0  0  0  0  0  0  0  0  0  0  0  0
  -14.3425  -23.9239   21.4212 H   0  0  0  0  0  0  0  0  0  0  0  0
  -12.7153  -23.5764   19.6011 H   0  0  0  0  0  0  0  0  0  0  0  0
  -10.6105  -22.2824   19.9729 H   0  0  0  0  0  0  0  0  0  0  0  0
   -5.1206  -22.1685   16.7910 H   0  0  0  0  0  0  0  0  0  0  0  0
   -6.2081  -21.3678   17.0028 H   0  0  0  0  0  0  0  0  0  0  0  0
   -3.5414  -21.2340   13.9649 H   0  0  0  0  0  0  0  0  0  0  0  0
   -3.6406  -22.3713   15.4944 H   0  0  0  0  0  0  0  0  0  0  0  0
   -1.8189  -18.8819   14.6059 H   0  0  0  0  0  0  0  0  0  0  0  0
   -3.8355  -18.8806   18.3215 H   0  0  0  0  0  0  0  0  0  0  0  0
   -5.0386  -17.9567   17.9946 H   0  0  0  0  0  0  0  0  0  0  0  0
  1  2  2  0
  2  3  1  0
  3  4  1  0
  4  5  1  0
  5  6  1  0
  6  7  1  0
  7  8  2  0
  8  9  1  0
  9 10  2  0
 10 11  1  0
 11 12  2  0
 12 13  1  0
 13 14  2  0
  2 15  1  0
 15 16  1  0
 16 17  1  0
 17 18  1  0
 18 19  2  0
 19 20  1  0
 19 21  1  0
 14  6  1  0
 21 15  1  0
 14  9  1  0
  3 22  1  0
  4 23  1  0
  4 24  1  0
  5 25  1  0
  5 26  1  0
  7 27  1  0
 10 28  1  0
 11 29  1  0
 12 30  1  0
 13 31  1  0
 16 32  1  0
 16 33  1  0
 17 34  1  0
 17 35  1  0
 18 36  1  0
 21 37  1  0
 21 38  1  0
M  END
>  <Energy>  (1483) 
911.42442863294525

>  <compound_id>  (1483) 
17823

>  <target_id>  (1483) 
1

>  <reference_id>  (1483) 
94

>  <inspiration_ids>  (1483) 
[85, 94]

>  <energy_score>  (1483) 
931.1305125553633

>  <distance_score>  (1483) 
10.381688143341805

>  <path>  (1483) 
/opt/xchem-fragalysis-2/maxwin/BulkDock/SCRATCH/511014/C17823-P94/C17823-P94.minimised.mol

>  <scratch_subdir>  (1483) 
/opt/xchem-fragalysis-2/maxwin/BulkDock/SCRATCH/511014/C17823-P94

>  <fragmenstein_runtime>  (1483) 
18.233574867248535

>  <fragmenstein_outcome>  (1483) 
too moved

>  <fragmenstein_mode>  (1483) 
expansion

>  <fragmenstein_error>  (1483) 


$$$$
C17839-P85
     RDKit          3D

 46 48  0  0  0  0  0  0  0  0999 V2000
  -10.2109  -21.3042   22.5449 O   0  0  0  0  0  0  0  0  0  0  0  0
  -10.2741  -21.5228   21.3928 C   0  0  0  0  0  0  0  0  0  0  0  0
   -9.1762  -20.9248   20.1733 N   0  0  0  0  0  0  0  0  0  0  0  0
   -7.7258  -19.6961   20.3073 C   0  0  0  0  0  0  0  0  0  0  0  0
   -7.0185  -19.2247   18.8425 C   0  0  0  0  0  0  0  0  0  0  0  0
   -5.5901  -18.8664   18.8185 N   0  0  0  0  0  0  0  0  0  0  0  0
   -4.7660  -19.0418   17.6898 C   0  0  0  0  0  0  0  0  0  0  0  0
   -3.9571  -18.0674   16.8184 C   0  0  0  0  0  0  0  0  0  0  0  0
   -4.1144  -16.7883   16.6113 C   0  0  0  0  0  0  0  0  0  0  0  0
   -5.2159  -16.3914   17.3733 C   0  0  0  0  0  0  0  0  0  0  0  0
   -5.4519  -17.4776   18.7947 C   0  0  0  0  0  0  0  0  0  0  0  0
  -11.2858  -22.2153   20.6310 N   0  0  0  0  0  0  0  0  0  0  0  0
  -12.5887  -22.7636   21.0361 C   0  0  0  0  0  0  0  0  0  0  0  0
  -13.2429  -22.1288   22.4003 C   0  0  0  0  0  0  0  0  0  0  0  0
  -13.7583  -22.9662   23.4837 N   0  0  0  0  0  0  0  0  0  0  0  0
  -13.2585  -23.0301   24.7637 C   0  0  0  0  0  0  0  0  0  0  0  0
  -13.6561  -24.1078   25.4094 N   0  0  0  0  0  0  0  0  0  0  0  0
  -14.5455  -24.7076   24.5591 C   0  0  0  0  0  0  0  0  0  0  0  0
  -15.1934  -25.9456   24.6888 C   0  0  0  0  0  0  0  0  0  0  0  0
  -16.0804  -26.3391   23.6907 C   0  0  0  0  0  0  0  0  0  0  0  0
  -16.2933  -25.5301   22.5745 C   0  0  0  0  0  0  0  0  0  0  0  0
  -15.6049  -24.3256   22.3918 C   0  0  0  0  0  0  0  0  0  0  0  0
  -14.7177  -23.9518   23.3973 C   0  0  0  0  0  0  0  0  0  0  0  0
   -9.4087  -21.3262   19.2899 H   0  0  0  0  0  0  0  0  0  0  0  0
   -6.7650  -19.9702   20.6861 H   0  0  0  0  0  0  0  0  0  0  0  0
   -7.9084  -18.9317   21.0702 H   0  0  0  0  0  0  0  0  0  0  0  0
   -7.4859  -18.4079   18.2891 H   0  0  0  0  0  0  0  0  0  0  0  0
   -7.2790  -20.0808   18.2468 H   0  0  0  0  0  0  0  0  0  0  0  0
   -5.0642  -19.9681   17.3499 H   0  0  0  0  0  0  0  0  0  0  0  0
   -3.9255  -19.4611   18.0246 H   0  0  0  0  0  0  0  0  0  0  0  0
   -3.3742  -18.4014   16.0083 H   0  0  0  0  0  0  0  0  0  0  0  0
   -3.7490  -16.3019   15.7301 H   0  0  0  0  0  0  0  0  0  0  0  0
   -5.1872  -15.3646   17.5291 H   0  0  0  0  0  0  0  0  0  0  0  0
   -6.1141  -16.1860   16.7258 H   0  0  0  0  0  0  0  0  0  0  0  0
   -4.5182  -17.3571   19.3085 H   0  0  0  0  0  0  0  0  0  0  0  0
   -6.2896  -17.2749   19.4768 H   0  0  0  0  0  0  0  0  0  0  0  0
  -10.9882  -22.2938   19.7018 H   0  0  0  0  0  0  0  0  0  0  0  0
  -12.6610  -23.8209   20.7909 H   0  0  0  0  0  0  0  0  0  0  0  0
  -13.2432  -22.3435   20.2564 H   0  0  0  0  0  0  0  0  0  0  0  0
  -14.1114  -21.5334   22.0861 H   0  0  0  0  0  0  0  0  0  0  0  0
  -12.5531  -21.4172   22.8595 H   0  0  0  0  0  0  0  0  0  0  0  0
  -12.5859  -22.2857   25.1554 H   0  0  0  0  0  0  0  0  0  0  0  0
  -15.0116  -26.5835   25.5441 H   0  0  0  0  0  0  0  0  0  0  0  0
  -16.6168  -27.2803   23.7852 H   0  0  0  0  0  0  0  0  0  0  0  0
  -17.0008  -25.8546   21.8125 H   0  0  0  0  0  0  0  0  0  0  0  0
  -15.7469  -23.7312   21.4959 H   0  0  0  0  0  0  0  0  0  0  0  0
  1  2  2  0
  2  3  1  0
  3  4  1  0
  4  5  1  0
  5  6  1  0
  6  7  1  0
  7  8  1  0
  8  9  2  0
  9 10  1  0
 10 11  1  0
  2 12  1  0
 12 13  1  0
 13 14  1  0
 14 15  1  0
 15 16  1  0
 16 17  2  0
 17 18  1  0
 18 19  2  0
 19 20  1  0
 20 21  2  0
 21 22  1  0
 22 23  2  0
 11  6  1  0
 23 15  1  0
 23 18  1  0
  3 24  1  0
  4 25  1  0
  4 26  1  0
  5 27  1  0
  5 28  1  0
  7 29  1  0
  7 30  1  0
  8 31  1  0
  9 32  1  0
 10 33  1  0
 10 34  1  0
 11 35  1  0
 11 36  1  0
 12 37  1  0
 13 38  1  0
 13 39  1  0
 14 40  1  0
 14 41  1  0
 16 42  1  0
 19 43  1  0
 20 44  1  0
 21 45  1  0
 22 46  1  0
M  END
>  <Energy>  (1484) 
212.94370328754889

>  <compound_id>  (1484) 
17839

>  <target_id>  (1484) 
1

>  <reference_id>  (1484) 
85

>  <inspiration_ids>  (1484) 
[85, 94]

>  <energy_score>  (1484) 
205.8141052498783

>  <distance_score>  (1484) 
10.22768304373292

>  <path>  (1484) 
/opt/xchem-fragalysis-2/maxwin/BulkDock/SCRATCH/511014/C17839-P85/C17839-P85.minimised.mol

>  <scratch_subdir>  (1484) 
/opt/xchem-fragalysis-2/maxwin/BulkDock/SCRATCH/511014/C17839-P85

>  <fragmenstein_runtime>  (1484) 
22.286235809326172

>  <fragmenstein_outcome>  (1484) 
too moved

>  <fragmenstein_mode>  (1484) 
expansion

>  <fragmenstein_error>  (1484) 


$$$$
C17839-P94
     RDKit          3D

 46 48  0  0  0  0  0  0  0  0999 V2000
   -6.1444  -20.2196   23.0606 O   0  0  0  0  0  0  0  0  0  0  0  0
   -5.7730  -21.2100   22.4963 C   0  0  0  0  0  0  0  0  0  0  0  0
   -4.9083  -21.1506   20.8113 N   0  0  0  0  0  0  0  0  0  0  0  0
   -4.3024  -19.6463   19.7122 C   0  0  0  0  0  0  0  0  0  0  0  0
   -2.5642  -18.8139   18.9223 C   0  0  0  0  0  0  0  0  0  0  0  0
   -1.0276  -18.4950   17.7042 N   0  0  0  0  0  0  0  0  0  0  0  0
    0.7663  -18.7522   17.7052 C   0  0  0  0  0  0  0  0  0  0  0  0
    1.6719  -19.6129   16.8508 C   0  0  0  0  0  0  0  0  0  0  0  0
    1.8213  -19.4737   15.5513 C   0  0  0  0  0  0  0  0  0  0  0  0
    0.6791  -18.8352   14.7948 C   0  0  0  0  0  0  0  0  0  0  0  0
   -1.1534  -18.6337   15.7320 C   0  0  0  0  0  0  0  0  0  0  0  0
   -5.8673  -22.9550   23.0829 N   0  0  0  0  0  0  0  0  0  0  0  0
   -6.5753  -23.6231   24.4555 C   0  0  0  0  0  0  0  0  0  0  0  0
   -7.4128  -23.1292   26.1325 C   0  0  0  0  0  0  0  0  0  0  0  0
   -9.0256  -23.7966   26.9007 N   0  0  0  0  0  0  0  0  0  0  0  0
   -9.4757  -23.5216   28.1520 C   0  0  0  0  0  0  0  0  0  0  0  0
  -10.0184  -24.5860   28.6875 N   0  0  0  0  0  0  0  0  0  0  0  0
  -10.7351  -25.0007   27.6265 C   0  0  0  0  0  0  0  0  0  0  0  0
  -11.8752  -25.7985   27.6131 C   0  0  0  0  0  0  0  0  0  0  0  0
  -12.6681  -25.7642   26.4715 C   0  0  0  0  0  0  0  0  0  0  0  0
  -12.2496  -25.0841   25.3293 C   0  0  0  0  0  0  0  0  0  0  0  0
  -11.0127  -24.4299   25.2773 C   0  0  0  0  0  0  0  0  0  0  0  0
  -10.2600  -24.3822   26.4554 C   0  0  0  0  0  0  0  0  0  0  0  0
   -4.7756  -22.0490   20.4906 H   0  0  0  0  0  0  0  0  0  0  0  0
   -4.9791  -18.8265   19.9861 H   0  0  0  0  0  0  0  0  0  0  0  0
   -4.7458  -19.9103   18.7541 H   0  0  0  0  0  0  0  0  0  0  0  0
   -2.2092  -18.1975   19.7588 H   0  0  0  0  0  0  0  0  0  0  0  0
   -3.1750  -18.1055   18.3445 H   0  0  0  0  0  0  0  0  0  0  0  0
    1.2138  -17.7738   17.5797 H   0  0  0  0  0  0  0  0  0  0  0  0
    1.3082  -18.9154   18.5912 H   0  0  0  0  0  0  0  0  0  0  0  0
    2.4105  -20.2109   17.3825 H   0  0  0  0  0  0  0  0  0  0  0  0
    2.6015  -19.9859   14.9993 H   0  0  0  0  0  0  0  0  0  0  0  0
    0.7443  -19.7312   14.0551 H   0  0  0  0  0  0  0  0  0  0  0  0
    0.7712  -18.5087   13.7344 H   0  0  0  0  0  0  0  0  0  0  0  0
   -1.9867  -19.1629   15.3853 H   0  0  0  0  0  0  0  0  0  0  0  0
   -1.8158  -18.0403   15.0946 H   0  0  0  0  0  0  0  0  0  0  0  0
   -5.3928  -23.5784   22.4251 H   0  0  0  0  0  0  0  0  0  0  0  0
   -5.8303  -24.3714   24.6415 H   0  0  0  0  0  0  0  0  0  0  0  0
   -7.4240  -24.0070   23.8919 H   0  0  0  0  0  0  0  0  0  0  0  0
   -7.8114  -23.9560   25.6249 H   0  0  0  0  0  0  0  0  0  0  0  0
   -6.7383  -23.1208   26.9941 H   0  0  0  0  0  0  0  0  0  0  0  0
   -9.7079  -22.5013   28.4151 H   0  0  0  0  0  0  0  0  0  0  0  0
  -12.1855  -26.2899   28.5220 H   0  0  0  0  0  0  0  0  0  0  0  0
  -13.6472  -26.2369   26.4906 H   0  0  0  0  0  0  0  0  0  0  0  0
  -12.9138  -25.0428   24.4687 H   0  0  0  0  0  0  0  0  0  0  0  0
  -10.7109  -23.8942   24.3883 H   0  0  0  0  0  0  0  0  0  0  0  0
  1  2  2  0
  2  3  1  0
  3  4  1  0
  4  5  1  0
  5  6  1  0
  6  7  1  0
  7  8  1  0
  8  9  2  0
  9 10  1  0
 10 11  1  0
  2 12  1  0
 12 13  1  0
 13 14  1  0
 14 15  1  0
 15 16  1  0
 16 17  2  0
 17 18  1  0
 18 19  2  0
 19 20  1  0
 20 21  2  0
 21 22  1  0
 22 23  2  0
 11  6  1  0
 23 15  1  0
 23 18  1  0
  3 24  1  0
  4 25  1  0
  4 26  1  0
  5 27  1  0
  5 28  1  0
  7 29  1  0
  7 30  1  0
  8 31  1  0
  9 32  1  0
 10 33  1  0
 10 34  1  0
 11 35  1  0
 11 36  1  0
 12 37  1  0
 13 38  1  0
 13 39  1  0
 14 40  1  0
 14 41  1  0
 16 42  1  0
 19 43  1  0
 20 44  1  0
 21 45  1  0
 22 46  1  0
M  END
>  <Energy>  (1485) 
922.67681653147622

>  <compound_id>  (1485) 
17839

>  <target_id>  (1485) 
1

>  <reference_id>  (1485) 
94

>  <inspiration_ids>  (1485) 
[85, 94]

>  <energy_score>  (1485) 
915.5472184937873

>  <distance_score>  (1485) 
7.075631607252013

>  <path>  (1485) 
/opt/xchem-fragalysis-2/maxwin/BulkDock/SCRATCH/511014/C17839-P94/C17839-P94.minimised.mol

>  <scratch_subdir>  (1485) 
/opt/xchem-fragalysis-2/maxwin/BulkDock/SCRATCH/511014/C17839-P94

>  <fragmenstein_runtime>  (1485) 
34.04804587364197

>  <fragmenstein_outcome>  (1485) 
too moved

>  <fragmenstein_mode>  (1485) 
expansion

>  <fragmenstein_error>  (1485) 


$$$$
C17834-P85
     RDKit          3D

 44 46  0  0  0  0  0  0  0  0999 V2000
   -7.7454  -17.3710   17.7742 C   0  0  0  0  0  0  0  0  0  0  0  0
   -6.9761  -17.5494   19.2650 C   0  0  0  0  0  0  0  0  0  0  0  0
   -5.6556  -17.6837   19.0843 C   0  0  0  0  0  0  0  0  0  0  0  0
   -5.3876  -18.5711   20.1217 C   0  0  0  0  0  0  0  0  0  0  0  0
   -6.4498  -19.5837   19.8392 C   0  0  0  0  0  0  0  0  0  0  0  0
   -7.7818  -20.0046   20.3948 N   0  0  0  0  0  0  0  0  0  0  0  0
   -9.2972  -20.6346   19.5035 C   0  0  0  0  0  0  0  0  0  0  0  0
   -9.4202  -20.6854   18.3202 O   0  0  0  0  0  0  0  0  0  0  0  0
  -10.3599  -21.2408   20.6383 N   0  0  0  0  0  0  0  0  0  0  0  0
  -11.6677  -21.8542   20.4880 C   0  0  0  0  0  0  0  0  0  0  0  0
  -12.5697  -21.8912   21.8469 C   0  0  0  0  0  0  0  0  0  0  0  0
  -11.9102  -22.0871   23.2617 C   0  0  0  0  0  0  0  0  0  0  0  0
  -12.5296  -22.8882   24.3427 N   0  0  0  0  0  0  0  0  0  0  0  0
  -13.8643  -23.0876   24.5027 C   0  0  0  0  0  0  0  0  0  0  0  0
  -14.0872  -23.3057   25.7772 N   0  0  0  0  0  0  0  0  0  0  0  0
  -12.8925  -23.1181   26.4220 C   0  0  0  0  0  0  0  0  0  0  0  0
  -12.4283  -22.8132   27.7026 C   0  0  0  0  0  0  0  0  0  0  0  0
  -11.5244  -23.7091   28.2231 C   0  0  0  0  0  0  0  0  0  0  0  0
  -10.8597  -24.5471   27.3634 C   0  0  0  0  0  0  0  0  0  0  0  0
  -10.9641  -24.3779   25.9800 C   0  0  0  0  0  0  0  0  0  0  0  0
  -11.9838  -23.5225   25.5103 C   0  0  0  0  0  0  0  0  0  0  0  0
   -7.5951  -18.4249   20.8207 C   0  0  0  0  0  0  0  0  0  0  0  0
   -8.7497  -16.9836   17.5814 H   0  0  0  0  0  0  0  0  0  0  0  0
   -7.2567  -16.6382   17.1185 H   0  0  0  0  0  0  0  0  0  0  0  0
   -7.7687  -18.3761   17.4303 H   0  0  0  0  0  0  0  0  0  0  0  0
   -4.9931  -17.4924   18.2584 H   0  0  0  0  0  0  0  0  0  0  0  0
   -4.5144  -19.1523   20.0300 H   0  0  0  0  0  0  0  0  0  0  0  0
   -5.4307  -17.8849   20.9740 H   0  0  0  0  0  0  0  0  0  0  0  0
   -5.8383  -20.4254   20.1722 H   0  0  0  0  0  0  0  0  0  0  0  0
   -6.5154  -19.7934   18.7664 H   0  0  0  0  0  0  0  0  0  0  0  0
   -9.9640  -21.1304   21.5474 H   0  0  0  0  0  0  0  0  0  0  0  0
  -11.5078  -22.8819   20.1573 H   0  0  0  0  0  0  0  0  0  0  0  0
  -12.2099  -21.3312   19.6944 H   0  0  0  0  0  0  0  0  0  0  0  0
  -13.0865  -20.9219   21.8807 H   0  0  0  0  0  0  0  0  0  0  0  0
  -13.3589  -22.6315   21.6779 H   0  0  0  0  0  0  0  0  0  0  0  0
  -10.8950  -22.4442   23.1364 H   0  0  0  0  0  0  0  0  0  0  0  0
  -11.8440  -21.0773   23.6891 H   0  0  0  0  0  0  0  0  0  0  0  0
  -14.6171  -22.9604   23.7374 H   0  0  0  0  0  0  0  0  0  0  0  0
  -12.9318  -22.1361   28.3777 H   0  0  0  0  0  0  0  0  0  0  0  0
  -11.3901  -23.7633   29.2951 H   0  0  0  0  0  0  0  0  0  0  0  0
  -10.1883  -25.2615   27.7908 H   0  0  0  0  0  0  0  0  0  0  0  0
  -10.2551  -24.8741   25.3459 H   0  0  0  0  0  0  0  0  0  0  0  0
   -6.8804  -18.5281   21.6623 H   0  0  0  0  0  0  0  0  0  0  0  0
   -8.1924  -17.7729   21.4854 H   0  0  0  0  0  0  0  0  0  0  0  0
  1  2  1  0
  2  3  2  0
  3  4  1  0
  4  5  1  0
  5  6  1  0
  6  7  1  0
  7  8  2  0
  7  9  1  0
  9 10  1  0
 10 11  1  0
 11 12  1  0
 12 13  1  0
 13 14  1  0
 14 15  2  0
 15 16  1  0
 16 17  2  0
 17 18  1  0
 18 19  2  0
 19 20  1  0
 20 21  2  0
  6 22  1  0
 22  2  1  0
 21 13  1  0
 21 16  1  0
  1 23  1  0
  1 24  1  0
  1 25  1  0
  3 26  1  0
  4 27  1  0
  4 28  1  0
  5 29  1  0
  5 30  1  0
  9 31  1  0
 10 32  1  0
 10 33  1  0
 11 34  1  0
 11 35  1  0
 12 36  1  0
 12 37  1  0
 14 38  1  0
 17 39  1  0
 18 40  1  0
 19 41  1  0
 20 42  1  0
 22 43  1  0
 22 44  1  0
M  END
>  <Energy>  (1486) 
370.75336875659337

>  <compound_id>  (1486) 
17834

>  <target_id>  (1486) 
1

>  <reference_id>  (1486) 
85

>  <inspiration_ids>  (1486) 
[85, 94]

>  <energy_score>  (1486) 
396.70386743863537

>  <distance_score>  (1486) 
10.783685778800937

>  <path>  (1486) 
/opt/xchem-fragalysis-2/maxwin/BulkDock/SCRATCH/511014/C17834-P85/C17834-P85.minimised.mol

>  <scratch_subdir>  (1486) 
/opt/xchem-fragalysis-2/maxwin/BulkDock/SCRATCH/511014/C17834-P85

>  <fragmenstein_runtime>  (1486) 
11.469401359558105

>  <fragmenstein_outcome>  (1486) 
too moved

>  <fragmenstein_mode>  (1486) 
expansion

>  <fragmenstein_error>  (1486) 


$$$$
C17834-P94
     RDKit          3D

 44 46  0  0  0  0  0  0  0  0999 V2000
    0.7273  -20.8259   14.1682 C   0  0  0  0  0  0  0  0  0  0  0  0
   -1.3631  -20.6961   13.8203 C   0  0  0  0  0  0  0  0  0  0  0  0
   -0.8706  -19.5788   13.3030 C   0  0  0  0  0  0  0  0  0  0  0  0
   -1.9022  -19.1048   14.1857 C   0  0  0  0  0  0  0  0  0  0  0  0
   -3.2907  -20.5319   13.6012 C   0  0  0  0  0  0  0  0  0  0  0  0
   -4.2675  -21.3902   14.6581 N   0  0  0  0  0  0  0  0  0  0  0  0
   -5.3499  -20.7953   16.4820 C   0  0  0  0  0  0  0  0  0  0  0  0
   -5.0651  -19.6218   16.8110 O   0  0  0  0  0  0  0  0  0  0  0  0
   -6.8342  -21.4815   17.2847 N   0  0  0  0  0  0  0  0  0  0  0  0
   -8.1738  -20.6828   18.3513 C   0  0  0  0  0  0  0  0  0  0  0  0
   -9.7569  -21.2314   19.2007 C   0  0  0  0  0  0  0  0  0  0  0  0
  -11.1720  -20.7506   19.8949 C   0  0  0  0  0  0  0  0  0  0  0  0
  -11.5749  -21.3842   21.2071 N   0  0  0  0  0  0  0  0  0  0  0  0
  -10.7477  -21.7015   22.2569 C   0  0  0  0  0  0  0  0  0  0  0  0
  -11.3503  -22.2547   23.2775 N   0  0  0  0  0  0  0  0  0  0  0  0
  -12.6507  -22.3133   22.9159 C   0  0  0  0  0  0  0  0  0  0  0  0
  -13.7156  -22.8688   23.6362 C   0  0  0  0  0  0  0  0  0  0  0  0
  -14.9905  -22.8068   23.0867 C   0  0  0  0  0  0  0  0  0  0  0  0
  -15.1845  -22.2140   21.8391 C   0  0  0  0  0  0  0  0  0  0  0  0
  -14.1205  -21.6806   21.0900 C   0  0  0  0  0  0  0  0  0  0  0  0
  -12.8425  -21.7531   21.6455 C   0  0  0  0  0  0  0  0  0  0  0  0
   -3.0736  -21.9516   14.4526 C   0  0  0  0  0  0  0  0  0  0  0  0
    1.5424  -21.4990   13.8065 H   0  0  0  0  0  0  0  0  0  0  0  0
    1.0069  -21.0651   15.2514 H   0  0  0  0  0  0  0  0  0  0  0  0
    1.2489  -19.8446   14.0355 H   0  0  0  0  0  0  0  0  0  0  0  0
    0.0843  -19.2421   12.9009 H   0  0  0  0  0  0  0  0  0  0  0  0
   -2.4293  -18.1482   13.9927 H   0  0  0  0  0  0  0  0  0  0  0  0
   -1.7951  -18.7999   15.2433 H   0  0  0  0  0  0  0  0  0  0  0  0
   -4.1346  -19.8275   13.1108 H   0  0  0  0  0  0  0  0  0  0  0  0
   -3.5924  -20.7419   12.5160 H   0  0  0  0  0  0  0  0  0  0  0  0
   -6.9044  -22.4459   17.0211 H   0  0  0  0  0  0  0  0  0  0  0  0
   -7.5723  -19.8558   18.7562 H   0  0  0  0  0  0  0  0  0  0  0  0
   -8.7251  -20.2035   17.5557 H   0  0  0  0  0  0  0  0  0  0  0  0
  -10.1965  -21.8116   18.3922 H   0  0  0  0  0  0  0  0  0  0  0  0
   -9.4292  -21.7703   20.0661 H   0  0  0  0  0  0  0  0  0  0  0  0
  -11.3235  -19.6790   20.0151 H   0  0  0  0  0  0  0  0  0  0  0  0
  -11.9662  -21.0753   19.2079 H   0  0  0  0  0  0  0  0  0  0  0  0
   -9.6848  -21.5718   22.2124 H   0  0  0  0  0  0  0  0  0  0  0  0
  -13.5416  -23.3027   24.6144 H   0  0  0  0  0  0  0  0  0  0  0  0
  -15.8372  -23.2055   23.6390 H   0  0  0  0  0  0  0  0  0  0  0  0
  -16.1923  -22.1647   21.4289 H   0  0  0  0  0  0  0  0  0  0  0  0
  -14.2986  -21.2362   20.1166 H   0  0  0  0  0  0  0  0  0  0  0  0
   -3.5366  -22.3312   15.4390 H   0  0  0  0  0  0  0  0  0  0  0  0
   -2.9640  -22.8865   13.8229 H   0  0  0  0  0  0  0  0  0  0  0  0
  1  2  1  0
  2  3  2  0
  3  4  1  0
  4  5  1  0
  5  6  1  0
  6  7  1  0
  7  8  2  0
  7  9  1  0
  9 10  1  0
 10 11  1  0
 11 12  1  0
 12 13  1  0
 13 14  1  0
 14 15  2  0
 15 16  1  0
 16 17  2  0
 17 18  1  0
 18 19  2  0
 19 20  1  0
 20 21  2  0
  6 22  1  0
 22  2  1  0
 21 13  1  0
 21 16  1  0
  1 23  1  0
  1 24  1  0
  1 25  1  0
  3 26  1  0
  4 27  1  0
  4 28  1  0
  5 29  1  0
  5 30  1  0
  9 31  1  0
 10 32  1  0
 10 33  1  0
 11 34  1  0
 11 35  1  0
 12 36  1  0
 12 37  1  0
 14 38  1  0
 17 39  1  0
 18 40  1  0
 19 41  1  0
 20 42  1  0
 22 43  1  0
 22 44  1  0
M  END
>  <Energy>  (1487) 
1256.3013637193992

>  <compound_id>  (1487) 
17834

>  <target_id>  (1487) 
1

>  <reference_id>  (1487) 
94

>  <inspiration_ids>  (1487) 
[85, 94]

>  <energy_score>  (1487) 
1282.251862401429

>  <distance_score>  (1487) 
9.720302627083344

>  <path>  (1487) 
/opt/xchem-fragalysis-2/maxwin/BulkDock/SCRATCH/511014/C17834-P94/C17834-P94.minimised.mol

>  <scratch_subdir>  (1487) 
/opt/xchem-fragalysis-2/maxwin/BulkDock/SCRATCH/511014/C17834-P94

>  <fragmenstein_runtime>  (1487) 
23.864906549453735

>  <fragmenstein_outcome>  (1487) 
too moved

>  <fragmenstein_mode>  (1487) 
expansion

>  <fragmenstein_error>  (1487) 


$$$$
C17833-P85
     RDKit          3D

 45 47  0  0  0  0  0  0  0  0999 V2000
    1.8374  -20.1763   12.4299 C   0  0  0  0  0  0  0  0  0  0  0  0
    0.8173  -20.5219   13.4018 O   0  0  0  0  0  0  0  0  0  0  0  0
   -0.2864  -19.5529   13.5458 C   0  0  0  0  0  0  0  0  0  0  0  0
    0.5721  -18.7415   14.3637 C   0  0  0  0  0  0  0  0  0  0  0  0
   -0.6393  -18.3544   14.9821 C   0  0  0  0  0  0  0  0  0  0  0  0
   -1.1072  -18.4186   16.4243 C   0  0  0  0  0  0  0  0  0  0  0  0
   -3.1166  -18.4181   16.1951 N   0  0  0  0  0  0  0  0  0  0  0  0
   -4.5882  -18.9465   17.4807 C   0  0  0  0  0  0  0  0  0  0  0  0
   -4.1191  -19.3349   18.3380 O   0  0  0  0  0  0  0  0  0  0  0  0
   -6.4812  -18.8715   17.9005 N   0  0  0  0  0  0  0  0  0  0  0  0
   -7.3058  -19.3770   19.1391 C   0  0  0  0  0  0  0  0  0  0  0  0
   -9.0040  -20.4395   18.7290 C   0  0  0  0  0  0  0  0  0  0  0  0
  -10.2086  -21.3798   19.7812 C   0  0  0  0  0  0  0  0  0  0  0  0
  -11.2064  -21.4082   20.8898 N   0  0  0  0  0  0  0  0  0  0  0  0
  -10.8419  -21.7072   22.2019 C   0  0  0  0  0  0  0  0  0  0  0  0
  -11.8303  -21.8380   23.0372 N   0  0  0  0  0  0  0  0  0  0  0  0
  -12.9247  -21.7660   22.2506 C   0  0  0  0  0  0  0  0  0  0  0  0
  -14.2529  -21.9594   22.6424 C   0  0  0  0  0  0  0  0  0  0  0  0
  -15.2351  -21.9202   21.6622 C   0  0  0  0  0  0  0  0  0  0  0  0
  -14.8909  -21.6836   20.3300 C   0  0  0  0  0  0  0  0  0  0  0  0
  -13.5625  -21.4785   19.9215 C   0  0  0  0  0  0  0  0  0  0  0  0
  -12.5817  -21.5268   20.9069 C   0  0  0  0  0  0  0  0  0  0  0  0
   -2.0677  -19.4963   14.6453 C   0  0  0  0  0  0  0  0  0  0  0  0
    2.4000  -19.2884   12.7192 H   0  0  0  0  0  0  0  0  0  0  0  0
    2.5548  -21.0016   12.3883 H   0  0  0  0  0  0  0  0  0  0  0  0
    1.4016  -20.0369   11.4369 H   0  0  0  0  0  0  0  0  0  0  0  0
   -0.2935  -19.2161   12.5307 H   0  0  0  0  0  0  0  0  0  0  0  0
    1.4896  -19.0818   14.8511 H   0  0  0  0  0  0  0  0  0  0  0  0
   -1.5844  -17.9150   14.6200 H   0  0  0  0  0  0  0  0  0  0  0  0
   -0.5556  -19.2593   16.9552 H   0  0  0  0  0  0  0  0  0  0  0  0
   -1.0389  -17.9656   17.4244 H   0  0  0  0  0  0  0  0  0  0  0  0
   -6.9392  -18.4498   17.1790 H   0  0  0  0  0  0  0  0  0  0  0  0
   -7.3117  -18.6536   19.9453 H   0  0  0  0  0  0  0  0  0  0  0  0
   -6.5174  -19.9940   19.5814 H   0  0  0  0  0  0  0  0  0  0  0  0
   -9.7189  -19.9695   18.0014 H   0  0  0  0  0  0  0  0  0  0  0  0
   -8.6109  -21.0657   17.9414 H   0  0  0  0  0  0  0  0  0  0  0  0
  -10.6605  -22.0736   19.0668 H   0  0  0  0  0  0  0  0  0  0  0  0
   -9.4701  -21.7844   20.4232 H   0  0  0  0  0  0  0  0  0  0  0  0
   -9.8116  -21.7954   22.4841 H   0  0  0  0  0  0  0  0  0  0  0  0
  -14.4967  -22.1521   23.6809 H   0  0  0  0  0  0  0  0  0  0  0  0
  -16.2758  -22.0718   21.9378 H   0  0  0  0  0  0  0  0  0  0  0  0
  -15.6812  -21.6551   19.5807 H   0  0  0  0  0  0  0  0  0  0  0  0
  -13.3234  -21.2978   18.8793 H   0  0  0  0  0  0  0  0  0  0  0  0
   -2.2258  -20.2291   13.8560 H   0  0  0  0  0  0  0  0  0  0  0  0
   -2.4771  -20.6276   14.6277 H   0  0  0  0  0  0  0  0  0  0  0  0
  1  2  1  0
  2  3  1  0
  3  4  1  0
  4  5  2  0
  5  6  1  0
  6  7  1  0
  7  8  1  0
  8  9  2  0
  8 10  1  0
 10 11  1  0
 11 12  1  0
 12 13  1  0
 13 14  1  0
 14 15  1  0
 15 16  2  0
 16 17  1  0
 17 18  2  0
 18 19  1  0
 19 20  2  0
 20 21  1  0
 21 22  2  0
  7 23  1  0
 23  3  1  0
 22 14  1  0
 22 17  1  0
  1 24  1  0
  1 25  1  0
  1 26  1  0
  3 27  1  0
  4 28  1  0
  5 29  1  0
  6 30  1  0
  6 31  1  0
 10 32  1  0
 11 33  1  0
 11 34  1  0
 12 35  1  0
 12 36  1  0
 13 37  1  0
 13 38  1  0
 15 39  1  0
 18 40  1  0
 19 41  1  0
 20 42  1  0
 21 43  1  0
 23 44  1  0
 23 45  1  0
M  END
>  <Energy>  (1488) 
1280.6224452174913

>  <compound_id>  (1488) 
17833

>  <target_id>  (1488) 
1

>  <reference_id>  (1488) 
85

>  <inspiration_ids>  (1488) 
[85, 94]

>  <energy_score>  (1488) 
1296.5542867329636

>  <distance_score>  (1488) 
10.024387161439712

>  <path>  (1488) 
/opt/xchem-fragalysis-2/maxwin/BulkDock/SCRATCH/511014/C17833-P85/C17833-P85.minimised.mol

>  <scratch_subdir>  (1488) 
/opt/xchem-fragalysis-2/maxwin/BulkDock/SCRATCH/511014/C17833-P85

>  <fragmenstein_runtime>  (1488) 
15.275575876235962

>  <fragmenstein_outcome>  (1488) 
too moved

>  <fragmenstein_mode>  (1488) 
expansion

>  <fragmenstein_error>  (1488) 


$$$$
C17833-P94
     RDKit          3D

 45 47  0  0  0  0  0  0  0  0999 V2000
    2.6169  -18.3162   26.5169 C   0  0  0  0  0  0  0  0  0  0  0  0
    1.7173  -19.0481   25.6951 O   0  0  0  0  0  0  0  0  0  0  0  0
    2.1949  -20.2900   25.1248 C   0  0  0  0  0  0  0  0  0  0  0  0
    3.6722  -20.3480   24.9505 C   0  0  0  0  0  0  0  0  0  0  0  0
    4.3060  -21.1722   25.7947 C   0  0  0  0  0  0  0  0  0  0  0  0
    3.5406  -21.9581   26.8673 C   0  0  0  0  0  0  0  0  0  0  0  0
    2.2552  -21.3554   27.4513 N   0  0  0  0  0  0  0  0  0  0  0  0
    1.2560  -21.9364   28.3753 C   0  0  0  0  0  0  0  0  0  0  0  0
    1.1662  -23.0259   28.8090 O   0  0  0  0  0  0  0  0  0  0  0  0
    0.4433  -20.7382   28.6332 N   0  0  0  0  0  0  0  0  0  0  0  0
   -0.6538  -20.5119   29.5721 C   0  0  0  0  0  0  0  0  0  0  0  0
   -2.0596  -20.9191   29.0721 C   0  0  0  0  0  0  0  0  0  0  0  0
   -3.1955  -20.0716   29.6748 C   0  0  0  0  0  0  0  0  0  0  0  0
   -3.4972  -20.2224   31.0779 N   0  0  0  0  0  0  0  0  0  0  0  0
   -3.0607  -21.2002   31.9217 C   0  0  0  0  0  0  0  0  0  0  0  0
   -3.5647  -21.0648   33.1239 N   0  0  0  0  0  0  0  0  0  0  0  0
   -4.4051  -19.9833   33.0476 C   0  0  0  0  0  0  0  0  0  0  0  0
   -5.2461  -19.4383   34.0258 C   0  0  0  0  0  0  0  0  0  0  0  0
   -5.9513  -18.2690   33.7232 C   0  0  0  0  0  0  0  0  0  0  0  0
   -5.8277  -17.6616   32.4706 C   0  0  0  0  0  0  0  0  0  0  0  0
   -5.0330  -18.2241   31.4651 C   0  0  0  0  0  0  0  0  0  0  0  0
   -4.3336  -19.3919   31.7911 C   0  0  0  0  0  0  0  0  0  0  0  0
    1.7870  -21.5080   26.0174 C   0  0  0  0  0  0  0  0  0  0  0  0
    2.0617  -17.4803   26.9525 H   0  0  0  0  0  0  0  0  0  0  0  0
    3.0137  -18.9143   27.3393 H   0  0  0  0  0  0  0  0  0  0  0  0
    3.4295  -17.8937   25.9187 H   0  0  0  0  0  0  0  0  0  0  0  0
    1.7066  -20.4363   24.1600 H   0  0  0  0  0  0  0  0  0  0  0  0
    4.1682  -19.7694   24.1817 H   0  0  0  0  0  0  0  0  0  0  0  0
    5.3823  -21.3062   25.7409 H   0  0  0  0  0  0  0  0  0  0  0  0
    4.2001  -21.9442   27.7481 H   0  0  0  0  0  0  0  0  0  0  0  0
    3.4533  -23.0362   26.6571 H   0  0  0  0  0  0  0  0  0  0  0  0
    0.8546  -19.9478   28.1515 H   0  0  0  0  0  0  0  0  0  0  0  0
   -0.6281  -19.4419   29.8038 H   0  0  0  0  0  0  0  0  0  0  0  0
   -0.4134  -21.0631   30.4867 H   0  0  0  0  0  0  0  0  0  0  0  0
   -2.0904  -20.7778   27.9838 H   0  0  0  0  0  0  0  0  0  0  0  0
   -2.2225  -21.9892   29.2445 H   0  0  0  0  0  0  0  0  0  0  0  0
   -4.1121  -20.2849   29.1219 H   0  0  0  0  0  0  0  0  0  0  0  0
   -2.9656  -19.0115   29.5098 H   0  0  0  0  0  0  0  0  0  0  0  0
   -2.3866  -21.9932   31.6283 H   0  0  0  0  0  0  0  0  0  0  0  0
   -5.3336  -19.9114   34.9964 H   0  0  0  0  0  0  0  0  0  0  0  0
   -6.6106  -17.8367   34.4703 H   0  0  0  0  0  0  0  0  0  0  0  0
   -6.3976  -16.7610   32.2596 H   0  0  0  0  0  0  0  0  0  0  0  0
   -4.9822  -17.7794   30.4798 H   0  0  0  0  0  0  0  0  0  0  0  0
    1.9281  -22.4959   25.5395 H   0  0  0  0  0  0  0  0  0  0  0  0
    0.6993  -21.5004   26.1032 H   0  0  0  0  0  0  0  0  0  0  0  0
  1  2  1  0
  2  3  1  0
  3  4  1  0
  4  5  2  0
  5  6  1  0
  6  7  1  0
  7  8  1  0
  8  9  2  0
  8 10  1  0
 10 11  1  0
 11 12  1  0
 12 13  1  0
 13 14  1  0
 14 15  1  0
 15 16  2  0
 16 17  1  0
 17 18  2  0
 18 19  1  0
 19 20  2  0
 20 21  1  0
 21 22  2  0
  7 23  1  0
 23  3  1  0
 22 14  1  0
 22 17  1  0
  1 24  1  0
  1 25  1  0
  1 26  1  0
  3 27  1  0
  4 28  1  0
  5 29  1  0
  6 30  1  0
  6 31  1  0
 10 32  1  0
 11 33  1  0
 11 34  1  0
 12 35  1  0
 12 36  1  0
 13 37  1  0
 13 38  1  0
 15 39  1  0
 18 40  1  0
 19 41  1  0
 20 42  1  0
 21 43  1  0
 23 44  1  0
 23 45  1  0
M  END
>  <Energy>  (1489) 
44.714187603197573

>  <compound_id>  (1489) 
17833

>  <target_id>  (1489) 
1

>  <reference_id>  (1489) 
94

>  <inspiration_ids>  (1489) 
[85, 94]

>  <energy_score>  (1489) 
60.64602911867166

>  <distance_score>  (1489) 
13.564494548550147

>  <path>  (1489) 
/opt/xchem-fragalysis-2/maxwin/BulkDock/SCRATCH/511014/C17833-P94/C17833-P94.minimised.mol

>  <scratch_subdir>  (1489) 
/opt/xchem-fragalysis-2/maxwin/BulkDock/SCRATCH/511014/C17833-P94

>  <fragmenstein_runtime>  (1489) 
59.46945285797119

>  <fragmenstein_outcome>  (1489) 
too moved

>  <fragmenstein_mode>  (1489) 
expansion

>  <fragmenstein_error>  (1489) 


$$$$
C17836-P85
     RDKit          3D

 46 48  0  0  0  0  0  0  0  0999 V2000
    2.5974  -19.9416   12.2091 O   0  0  0  0  0  0  0  0  0  0  0  0
    1.6257  -20.0228   12.9526 C   0  0  0  0  0  0  0  0  0  0  0  0
    1.7995  -20.6488   14.1201 O   0  0  0  0  0  0  0  0  0  0  0  0
    0.2581  -19.4897   12.6551 C   0  0  0  0  0  0  0  0  0  0  0  0
    0.3353  -18.5644   11.6479 C   0  0  0  0  0  0  0  0  0  0  0  0
   -1.1806  -17.8081   11.0941 C   0  0  0  0  0  0  0  0  0  0  0  0
   -3.3042  -19.0120   11.1123 C   0  0  0  0  0  0  0  0  0  0  0  0
   -3.1960  -20.3603   12.8728 N   0  0  0  0  0  0  0  0  0  0  0  0
   -4.0061  -21.5500   14.5697 C   0  0  0  0  0  0  0  0  0  0  0  0
   -5.2531  -20.9951   16.6027 C   0  0  0  0  0  0  0  0  0  0  0  0
   -5.4131  -20.1384   18.6498 C   0  0  0  0  0  0  0  0  0  0  0  0
   -5.3135  -20.8606   20.6968 C   0  0  0  0  0  0  0  0  0  0  0  0
   -5.9292  -21.6404   22.6636 C   0  0  0  0  0  0  0  0  0  0  0  0
   -6.3382  -23.2437   23.6934 N   0  0  0  0  0  0  0  0  0  0  0  0
   -5.4935  -22.7751   25.1479 C   0  0  0  0  0  0  0  0  0  0  0  0
   -6.0777  -22.7195   26.3001 N   0  0  0  0  0  0  0  0  0  0  0  0
   -7.4375  -23.0992   26.1658 C   0  0  0  0  0  0  0  0  0  0  0  0
   -8.4159  -23.2453   27.3171 C   0  0  0  0  0  0  0  0  0  0  0  0
   -9.6466  -24.0153   27.3425 C   0  0  0  0  0  0  0  0  0  0  0  0
   -9.9769  -24.7181   26.2177 C   0  0  0  0  0  0  0  0  0  0  0  0
   -9.0947  -24.5994   25.0644 C   0  0  0  0  0  0  0  0  0  0  0  0
   -7.6742  -23.6879   24.7730 C   0  0  0  0  0  0  0  0  0  0  0  0
   -1.2906  -19.8787   13.5766 C   0  0  0  0  0  0  0  0  0  0  0  0
    2.7470  -20.8745   14.0625 H   0  0  0  0  0  0  0  0  0  0  0  0
    1.2294  -18.2620   11.1095 H   0  0  0  0  0  0  0  0  0  0  0  0
   -0.7920  -16.7505   11.4049 H   0  0  0  0  0  0  0  0  0  0  0  0
   -0.9927  -17.2216   10.0124 H   0  0  0  0  0  0  0  0  0  0  0  0
   -3.5136  -19.5928   10.1956 H   0  0  0  0  0  0  0  0  0  0  0  0
   -4.3016  -18.5536   11.3207 H   0  0  0  0  0  0  0  0  0  0  0  0
   -2.9809  -21.3734   14.6510 H   0  0  0  0  0  0  0  0  0  0  0  0
   -3.5768  -22.5877   14.6323 H   0  0  0  0  0  0  0  0  0  0  0  0
   -6.2401  -21.3694   17.0583 H   0  0  0  0  0  0  0  0  0  0  0  0
   -4.9581  -19.7242   16.8302 H   0  0  0  0  0  0  0  0  0  0  0  0
   -6.4639  -19.7851   18.6932 H   0  0  0  0  0  0  0  0  0  0  0  0
   -4.9129  -19.1641   18.6406 H   0  0  0  0  0  0  0  0  0  0  0  0
   -4.2413  -20.9425   20.8113 H   0  0  0  0  0  0  0  0  0  0  0  0
   -5.6406  -19.8252   20.9262 H   0  0  0  0  0  0  0  0  0  0  0  0
   -5.5858  -21.3080   23.6070 H   0  0  0  0  0  0  0  0  0  0  0  0
   -6.9292  -21.1753   22.9625 H   0  0  0  0  0  0  0  0  0  0  0  0
   -4.7228  -22.0214   25.0294 H   0  0  0  0  0  0  0  0  0  0  0  0
   -8.0350  -22.7832   28.1952 H   0  0  0  0  0  0  0  0  0  0  0  0
  -10.3254  -24.0231   28.1837 H   0  0  0  0  0  0  0  0  0  0  0  0
  -10.9364  -25.2161   26.1365 H   0  0  0  0  0  0  0  0  0  0  0  0
   -9.8013  -24.2717   24.3122 H   0  0  0  0  0  0  0  0  0  0  0  0
   -1.5023  -19.0602   14.3024 H   0  0  0  0  0  0  0  0  0  0  0  0
   -0.8960  -20.7500   13.8541 H   0  0  0  0  0  0  0  0  0  0  0  0
  1  2  2  0
  2  3  1  0
  2  4  1  0
  4  5  2  0
  5  6  1  0
  6  7  1  0
  7  8  1  0
  8  9  1  0
  9 10  1  0
 10 11  1  0
 11 12  1  0
 12 13  1  0
 13 14  1  0
 14 15  1  0
 15 16  2  0
 16 17  1  0
 17 18  2  0
 18 19  1  0
 19 20  2  0
 20 21  1  0
 21 22  2  0
  8 23  1  0
 23  4  1  0
 22 14  1  0
 22 17  1  0
  3 24  1  0
  5 25  1  0
  6 26  1  0
  6 27  1  0
  7 28  1  0
  7 29  1  0
  9 30  1  0
  9 31  1  0
 10 32  1  0
 10 33  1  0
 11 34  1  0
 11 35  1  0
 12 36  1  0
 12 37  1  0
 13 38  1  0
 13 39  1  0
 15 40  1  0
 18 41  1  0
 19 42  1  0
 20 43  1  0
 21 44  1  0
 23 45  1  0
 23 46  1  0
M  END
>  <Energy>  (1490) 
2248.0906151966556

>  <compound_id>  (1490) 
17836

>  <target_id>  (1490) 
1

>  <reference_id>  (1490) 
85

>  <inspiration_ids>  (1490) 
[85, 94]

>  <energy_score>  (1490) 
2203.5309345117635

>  <distance_score>  (1490) 
7.89862129518324

>  <path>  (1490) 
/opt/xchem-fragalysis-2/maxwin/BulkDock/SCRATCH/511014/C17836-P85/C17836-P85.minimised.mol

>  <scratch_subdir>  (1490) 
/opt/xchem-fragalysis-2/maxwin/BulkDock/SCRATCH/511014/C17836-P85

>  <fragmenstein_runtime>  (1490) 
12.234432935714722

>  <fragmenstein_outcome>  (1490) 
too moved

>  <fragmenstein_mode>  (1490) 
expansion

>  <fragmenstein_error>  (1490) 


$$$$
C17836-P94
     RDKit          3D

 46 48  0  0  0  0  0  0  0  0999 V2000
    2.7369  -20.3543   17.7923 O   0  0  0  0  0  0  0  0  0  0  0  0
    2.5906  -19.5889   16.8555 C   0  0  0  0  0  0  0  0  0  0  0  0
    3.4984  -18.6560   16.4822 O   0  0  0  0  0  0  0  0  0  0  0  0
    1.3752  -19.5036   16.0185 C   0  0  0  0  0  0  0  0  0  0  0  0
    1.5822  -19.6074   14.6615 C   0  0  0  0  0  0  0  0  0  0  0  0
    0.4705  -19.2610   13.5924 C   0  0  0  0  0  0  0  0  0  0  0  0
   -1.4754  -19.1492   14.0957 C   0  0  0  0  0  0  0  0  0  0  0  0
   -1.6629  -18.6544   15.7495 N   0  0  0  0  0  0  0  0  0  0  0  0
   -3.3776  -18.3917   16.7920 C   0  0  0  0  0  0  0  0  0  0  0  0
   -4.4950  -18.9798   18.3098 C   0  0  0  0  0  0  0  0  0  0  0  0
   -6.2816  -18.9040   18.9259 C   0  0  0  0  0  0  0  0  0  0  0  0
   -7.3242  -19.6094   20.3437 C   0  0  0  0  0  0  0  0  0  0  0  0
   -8.8104  -21.0202   20.4765 C   0  0  0  0  0  0  0  0  0  0  0  0
  -10.1938  -21.5071   21.4965 N   0  0  0  0  0  0  0  0  0  0  0  0
   -9.9906  -22.1415   22.7189 C   0  0  0  0  0  0  0  0  0  0  0  0
  -11.0607  -22.4618   23.3880 N   0  0  0  0  0  0  0  0  0  0  0  0
  -12.0630  -21.9530   22.6715 C   0  0  0  0  0  0  0  0  0  0  0  0
  -13.4146  -22.0119   23.0375 C   0  0  0  0  0  0  0  0  0  0  0  0
  -14.3583  -21.4568   22.1973 C   0  0  0  0  0  0  0  0  0  0  0  0
  -13.9428  -20.8804   21.0085 C   0  0  0  0  0  0  0  0  0  0  0  0
  -12.5865  -20.8351   20.6290 C   0  0  0  0  0  0  0  0  0  0  0  0
  -11.6019  -21.3655   21.4710 C   0  0  0  0  0  0  0  0  0  0  0  0
   -0.1539  -19.2994   16.8547 C   0  0  0  0  0  0  0  0  0  0  0  0
    3.1766  -18.1404   15.7032 H   0  0  0  0  0  0  0  0  0  0  0  0
    2.5653  -19.8003   14.2406 H   0  0  0  0  0  0  0  0  0  0  0  0
    0.5411  -19.8443   12.7006 H   0  0  0  0  0  0  0  0  0  0  0  0
    0.7895  -18.3854   12.9976 H   0  0  0  0  0  0  0  0  0  0  0  0
   -1.1973  -20.0178   13.4897 H   0  0  0  0  0  0  0  0  0  0  0  0
   -2.1145  -20.0524   14.1334 H   0  0  0  0  0  0  0  0  0  0  0  0
   -2.8096  -18.1607   17.7211 H   0  0  0  0  0  0  0  0  0  0  0  0
   -3.8731  -17.4998   16.3862 H   0  0  0  0  0  0  0  0  0  0  0  0
   -4.0716  -18.3259   19.0908 H   0  0  0  0  0  0  0  0  0  0  0  0
   -4.1654  -19.9637   18.5979 H   0  0  0  0  0  0  0  0  0  0  0  0
   -6.2089  -17.8861   19.3359 H   0  0  0  0  0  0  0  0  0  0  0  0
   -6.9813  -18.7891   18.1225 H   0  0  0  0  0  0  0  0  0  0  0  0
   -6.4093  -19.8640   20.8794 H   0  0  0  0  0  0  0  0  0  0  0  0
   -7.5820  -18.7358   20.9564 H   0  0  0  0  0  0  0  0  0  0  0  0
   -8.5304  -20.9051   21.5462 H   0  0  0  0  0  0  0  0  0  0  0  0
   -9.4571  -20.7108   19.6789 H   0  0  0  0  0  0  0  0  0  0  0  0
   -9.0251  -22.4536   23.0676 H   0  0  0  0  0  0  0  0  0  0  0  0
  -13.7010  -22.4822   23.9717 H   0  0  0  0  0  0  0  0  0  0  0  0
  -15.4110  -21.4820   22.4627 H   0  0  0  0  0  0  0  0  0  0  0  0
  -14.6886  -20.4576   20.3358 H   0  0  0  0  0  0  0  0  0  0  0  0
  -12.3794  -20.3844   19.6743 H   0  0  0  0  0  0  0  0  0  0  0  0
    0.5586  -18.6573   17.5021 H   0  0  0  0  0  0  0  0  0  0  0  0
   -0.6434  -18.8332   17.7287 H   0  0  0  0  0  0  0  0  0  0  0  0
  1  2  2  0
  2  3  1  0
  2  4  1  0
  4  5  2  0
  5  6  1  0
  6  7  1  0
  7  8  1  0
  8  9  1  0
  9 10  1  0
 10 11  1  0
 11 12  1  0
 12 13  1  0
 13 14  1  0
 14 15  1  0
 15 16  2  0
 16 17  1  0
 17 18  2  0
 18 19  1  0
 19 20  2  0
 20 21  1  0
 21 22  2  0
  8 23  1  0
 23  4  1  0
 22 14  1  0
 22 17  1  0
  3 24  1  0
  5 25  1  0
  6 26  1  0
  6 27  1  0
  7 28  1  0
  7 29  1  0
  9 30  1  0
  9 31  1  0
 10 32  1  0
 10 33  1  0
 11 34  1  0
 11 35  1  0
 12 36  1  0
 12 37  1  0
 13 38  1  0
 13 39  1  0
 15 40  1  0
 18 41  1  0
 19 42  1  0
 20 43  1  0
 21 44  1  0
 23 45  1  0
 23 46  1  0
M  END
>  <Energy>  (1491) 
803.69397210699549

>  <compound_id>  (1491) 
17836

>  <target_id>  (1491) 
1

>  <reference_id>  (1491) 
94

>  <inspiration_ids>  (1491) 
[85, 94]

>  <energy_score>  (1491) 
759.1342914220754

>  <distance_score>  (1491) 
9.646409559307763

>  <path>  (1491) 
/opt/xchem-fragalysis-2/maxwin/BulkDock/SCRATCH/511014/C17836-P94/C17836-P94.minimised.mol

>  <scratch_subdir>  (1491) 
/opt/xchem-fragalysis-2/maxwin/BulkDock/SCRATCH/511014/C17836-P94

>  <fragmenstein_runtime>  (1491) 
21.536614656448364

>  <fragmenstein_outcome>  (1491) 
too moved

>  <fragmenstein_mode>  (1491) 
expansion

>  <fragmenstein_error>  (1491) 


$$$$
C17831-P85
     RDKit          3D

 40 42  0  0  0  0  0  0  0  0999 V2000
   -4.3398  -19.9337   12.3553 O   0  0  0  0  0  0  0  0  0  0  0  0
   -3.4388  -20.6698   12.7271 C   0  0  0  0  0  0  0  0  0  0  0  0
   -3.2395  -22.7093   12.5647 C   0  0  0  0  0  0  0  0  0  0  0  0
   -3.0818  -24.0253   13.7643 C   0  0  0  0  0  0  0  0  0  0  0  0
   -2.3246  -25.2225   14.2400 N   0  0  0  0  0  0  0  0  0  0  0  0
   -2.9216  -26.4755   13.9816 C   0  0  0  0  0  0  0  0  0  0  0  0
   -2.9528  -27.2939   15.0061 N   0  0  0  0  0  0  0  0  0  0  0  0
   -2.1486  -26.7200   15.9349 C   0  0  0  0  0  0  0  0  0  0  0  0
   -1.7702  -27.2554   17.1862 C   0  0  0  0  0  0  0  0  0  0  0  0
   -0.9420  -26.5229   18.0348 C   0  0  0  0  0  0  0  0  0  0  0  0
   -0.4451  -25.3036   17.6014 C   0  0  0  0  0  0  0  0  0  0  0  0
   -0.7661  -24.7846   16.3305 C   0  0  0  0  0  0  0  0  0  0  0  0
   -1.6665  -25.4748   15.4885 C   0  0  0  0  0  0  0  0  0  0  0  0
   -1.7975  -20.2666   13.7158 N   0  0  0  0  0  0  0  0  0  0  0  0
   -1.3011  -18.7608   14.4236 C   0  0  0  0  0  0  0  0  0  0  0  0
    0.5039  -18.5110   15.1919 C   0  0  0  0  0  0  0  0  0  0  0  0
    1.6328  -19.3403   14.6635 C   0  0  0  0  0  0  0  0  0  0  0  0
    1.2411  -20.0991   13.6584 C   0  0  0  0  0  0  0  0  0  0  0  0
   -0.0703  -19.8089   12.8581 C   0  0  0  0  0  0  0  0  0  0  0  0
    1.0004  -19.9424   11.3884 C   0  0  0  0  0  0  0  0  0  0  0  0
    2.0150  -20.9411   11.2149 O   0  0  0  0  0  0  0  0  0  0  0  0
   -3.9764  -23.0549   11.8034 H   0  0  0  0  0  0  0  0  0  0  0  0
   -2.3220  -23.1361   12.2688 H   0  0  0  0  0  0  0  0  0  0  0  0
   -3.4130  -23.5691   14.6422 H   0  0  0  0  0  0  0  0  0  0  0  0
   -3.8499  -24.5960   13.2304 H   0  0  0  0  0  0  0  0  0  0  0  0
   -3.4125  -26.6639   13.0341 H   0  0  0  0  0  0  0  0  0  0  0  0
   -2.1444  -28.2316   17.4762 H   0  0  0  0  0  0  0  0  0  0  0  0
   -0.6563  -26.9299   18.9995 H   0  0  0  0  0  0  0  0  0  0  0  0
    0.2626  -24.7548   18.2174 H   0  0  0  0  0  0  0  0  0  0  0  0
   -0.2691  -23.8766   16.0230 H   0  0  0  0  0  0  0  0  0  0  0  0
   -2.1328  -18.0575   14.3223 H   0  0  0  0  0  0  0  0  0  0  0  0
   -1.7154  -18.7025   15.3757 H   0  0  0  0  0  0  0  0  0  0  0  0
    0.3723  -18.7038   16.2863 H   0  0  0  0  0  0  0  0  0  0  0  0
    1.1066  -17.6434   15.3302 H   0  0  0  0  0  0  0  0  0  0  0  0
    2.5617  -19.4741   15.2002 H   0  0  0  0  0  0  0  0  0  0  0  0
    1.9323  -20.8917   13.3929 H   0  0  0  0  0  0  0  0  0  0  0  0
   -0.1580  -18.8627   12.3885 H   0  0  0  0  0  0  0  0  0  0  0  0
    1.6048  -19.0185   11.4590 H   0  0  0  0  0  0  0  0  0  0  0  0
    0.5792  -19.8118   10.4020 H   0  0  0  0  0  0  0  0  0  0  0  0
    1.5842  -21.7997   11.3995 H   0  0  0  0  0  0  0  0  0  0  0  0
  1  2  2  0
  2  3  1  0
  3  4  1  0
  4  5  1  0
  5  6  1  0
  6  7  2  0
  7  8  1  0
  8  9  2  0
  9 10  1  0
 10 11  2  0
 11 12  1  0
 12 13  2  0
  2 14  1  0
 14 15  1  0
 15 16  1  0
 16 17  1  0
 17 18  2  0
 18 19  1  0
 19 20  1  0
 20 21  1  0
 13  5  1  0
 19 14  1  0
 13  8  1  0
  3 22  1  0
  3 23  1  0
  4 24  1  0
  4 25  1  0
  6 26  1  0
  9 27  1  0
 10 28  1  0
 11 29  1  0
 12 30  1  0
 15 31  1  0
 15 32  1  0
 16 33  1  0
 16 34  1  0
 17 35  1  0
 18 36  1  0
 19 37  1  0
 20 38  1  0
 20 39  1  0
 21 40  1  0
M  END
>  <Energy>  (1492) 
634.05328779260549

>  <compound_id>  (1492) 
17831

>  <target_id>  (1492) 
1

>  <reference_id>  (1492) 
85

>  <inspiration_ids>  (1492) 
[85, 94]

>  <energy_score>  (1492) 
585.2388060786213

>  <distance_score>  (1492) 
15.537830722489552

>  <path>  (1492) 
/opt/xchem-fragalysis-2/maxwin/BulkDock/SCRATCH/511014/C17831-P85/C17831-P85.minimised.mol

>  <scratch_subdir>  (1492) 
/opt/xchem-fragalysis-2/maxwin/BulkDock/SCRATCH/511014/C17831-P85

>  <fragmenstein_runtime>  (1492) 
11.403684377670288

>  <fragmenstein_outcome>  (1492) 
too moved

>  <fragmenstein_mode>  (1492) 
expansion

>  <fragmenstein_error>  (1492) 


$$$$
C17831-P94
     RDKit          3D

 40 42  0  0  0  0  0  0  0  0999 V2000
   -7.2115  -20.4001   23.2430 O   0  0  0  0  0  0  0  0  0  0  0  0
   -7.9289  -20.2748   22.2928 C   0  0  0  0  0  0  0  0  0  0  0  0
   -9.8600  -20.8964   22.6810 C   0  0  0  0  0  0  0  0  0  0  0  0
  -11.1553  -22.0107   23.6031 C   0  0  0  0  0  0  0  0  0  0  0  0
  -11.3706  -23.2354   24.7115 N   0  0  0  0  0  0  0  0  0  0  0  0
  -10.5153  -24.3142   24.7394 C   0  0  0  0  0  0  0  0  0  0  0  0
  -11.0296  -25.3677   25.3251 N   0  0  0  0  0  0  0  0  0  0  0  0
  -11.5452  -24.7654   26.4034 C   0  0  0  0  0  0  0  0  0  0  0  0
  -11.6297  -25.3213   27.6947 C   0  0  0  0  0  0  0  0  0  0  0  0
  -11.6416  -24.4618   28.7869 C   0  0  0  0  0  0  0  0  0  0  0  0
  -11.6371  -23.0930   28.5767 C   0  0  0  0  0  0  0  0  0  0  0  0
  -11.6464  -22.5641   27.2775 C   0  0  0  0  0  0  0  0  0  0  0  0
  -11.6674  -23.3847   26.1365 C   0  0  0  0  0  0  0  0  0  0  0  0
   -7.0988  -19.7801   20.7666 N   0  0  0  0  0  0  0  0  0  0  0  0
   -5.7367  -19.6176   20.4564 C   0  0  0  0  0  0  0  0  0  0  0  0
   -4.6296  -19.2587   19.4826 C   0  0  0  0  0  0  0  0  0  0  0  0
   -4.4801  -17.7901   19.8134 C   0  0  0  0  0  0  0  0  0  0  0  0
   -5.5822  -17.3752   20.5863 C   0  0  0  0  0  0  0  0  0  0  0  0
   -6.9564  -18.1820   20.4603 C   0  0  0  0  0  0  0  0  0  0  0  0
   -6.8451  -18.0799   18.7587 C   0  0  0  0  0  0  0  0  0  0  0  0
   -5.6234  -17.5538   18.2207 O   0  0  0  0  0  0  0  0  0  0  0  0
  -10.4518  -20.0409   23.0553 H   0  0  0  0  0  0  0  0  0  0  0  0
  -10.1449  -21.3067   21.6946 H   0  0  0  0  0  0  0  0  0  0  0  0
  -11.8421  -21.2732   24.0522 H   0  0  0  0  0  0  0  0  0  0  0  0
  -11.7326  -22.4423   22.7720 H   0  0  0  0  0  0  0  0  0  0  0  0
   -9.5946  -24.2721   24.1731 H   0  0  0  0  0  0  0  0  0  0  0  0
  -11.5124  -26.3892   27.8365 H   0  0  0  0  0  0  0  0  0  0  0  0
  -11.6294  -24.8553   29.8002 H   0  0  0  0  0  0  0  0  0  0  0  0
  -11.6250  -22.4185   29.4293 H   0  0  0  0  0  0  0  0  0  0  0  0
  -11.5337  -21.5090   27.1690 H   0  0  0  0  0  0  0  0  0  0  0  0
   -5.3849  -20.6450   20.5849 H   0  0  0  0  0  0  0  0  0  0  0  0
   -5.6392  -19.1828   21.4217 H   0  0  0  0  0  0  0  0  0  0  0  0
   -3.6989  -19.7444   19.7689 H   0  0  0  0  0  0  0  0  0  0  0  0
   -4.7995  -19.6197   18.4765 H   0  0  0  0  0  0  0  0  0  0  0  0
   -3.4905  -17.3344   19.7489 H   0  0  0  0  0  0  0  0  0  0  0  0
   -5.5678  -16.6000   21.3330 H   0  0  0  0  0  0  0  0  0  0  0  0
   -7.6037  -17.6613   21.1854 H   0  0  0  0  0  0  0  0  0  0  0  0
   -7.5371  -17.4010   18.2550 H   0  0  0  0  0  0  0  0  0  0  0  0
   -6.9907  -19.0854   18.3802 H   0  0  0  0  0  0  0  0  0  0  0  0
   -5.0229  -18.1449   17.7356 H   0  0  0  0  0  0  0  0  0  0  0  0
  1  2  2  0
  2  3  1  0
  3  4  1  0
  4  5  1  0
  5  6  1  0
  6  7  2  0
  7  8  1  0
  8  9  2  0
  9 10  1  0
 10 11  2  0
 11 12  1  0
 12 13  2  0
  2 14  1  0
 14 15  1  0
 15 16  1  0
 16 17  1  0
 17 18  2  0
 18 19  1  0
 19 20  1  0
 20 21  1  0
 13  5  1  0
 19 14  1  0
 13  8  1  0
  3 22  1  0
  3 23  1  0
  4 24  1  0
  4 25  1  0
  6 26  1  0
  9 27  1  0
 10 28  1  0
 11 29  1  0
 12 30  1  0
 15 31  1  0
 15 32  1  0
 16 33  1  0
 16 34  1  0
 17 35  1  0
 18 36  1  0
 19 37  1  0
 20 38  1  0
 20 39  1  0
 21 40  1  0
M  END
>  <Energy>  (1493) 
632.08241590684429

>  <compound_id>  (1493) 
17831

>  <target_id>  (1493) 
1

>  <reference_id>  (1493) 
94

>  <inspiration_ids>  (1493) 
[85, 94]

>  <energy_score>  (1493) 
583.2679341928724

>  <distance_score>  (1493) 
10.4794557351145

>  <path>  (1493) 
/opt/xchem-fragalysis-2/maxwin/BulkDock/SCRATCH/511014/C17831-P94/C17831-P94.minimised.mol

>  <scratch_subdir>  (1493) 
/opt/xchem-fragalysis-2/maxwin/BulkDock/SCRATCH/511014/C17831-P94

>  <fragmenstein_runtime>  (1493) 
16.601224184036255

>  <fragmenstein_outcome>  (1493) 
too moved

>  <fragmenstein_mode>  (1493) 
expansion

>  <fragmenstein_error>  (1493) 


$$$$
C17840-P85
     RDKit          3D

 38 40  0  0  0  0  0  0  0  0999 V2000
   -4.5596  -18.8375   17.0051 O   0  0  0  0  0  0  0  0  0  0  0  0
   -3.7871  -18.7342   17.8868 C   0  0  0  0  0  0  0  0  0  0  0  0
   -4.2551  -19.2698   19.7777 N   0  0  0  0  0  0  0  0  0  0  0  0
   -5.7474  -20.1168   20.5679 C   0  0  0  0  0  0  0  0  0  0  0  0
   -5.5225  -21.4971   22.2548 C   0  0  0  0  0  0  0  0  0  0  0  0
   -6.2551  -22.9501   23.4529 N   0  0  0  0  0  0  0  0  0  0  0  0
   -5.4069  -22.4596   24.9664 C   0  0  0  0  0  0  0  0  0  0  0  0
   -5.8184  -22.6909   26.1675 N   0  0  0  0  0  0  0  0  0  0  0  0
   -7.1620  -23.0606   26.0577 C   0  0  0  0  0  0  0  0  0  0  0  0
   -8.1872  -23.1257   27.1998 C   0  0  0  0  0  0  0  0  0  0  0  0
   -9.3767  -23.9452   27.2015 C   0  0  0  0  0  0  0  0  0  0  0  0
   -9.5983  -24.5974   26.0198 C   0  0  0  0  0  0  0  0  0  0  0  0
   -8.5768  -24.3900   24.8253 C   0  0  0  0  0  0  0  0  0  0  0  0
   -7.3769  -23.6111   24.6396 C   0  0  0  0  0  0  0  0  0  0  0  0
   -1.6383  -18.1207   17.5804 C   0  0  0  0  0  0  0  0  0  0  0  0
   -0.4446  -19.0492   17.5640 C   0  0  0  0  0  0  0  0  0  0  0  0
    1.2331  -19.4139   17.9141 C   0  0  0  0  0  0  0  0  0  0  0  0
    2.1272  -18.3019   18.4110 C   0  0  0  0  0  0  0  0  0  0  0  0
    1.2654  -17.3385   19.0764 N   0  0  0  0  0  0  0  0  0  0  0  0
   -0.0598  -16.8463   18.0671 C   0  0  0  0  0  0  0  0  0  0  0  0
   -3.5054  -19.0328   20.3874 H   0  0  0  0  0  0  0  0  0  0  0  0
   -6.2106  -19.2398   21.0518 H   0  0  0  0  0  0  0  0  0  0  0  0
   -6.2930  -20.2892   19.6792 H   0  0  0  0  0  0  0  0  0  0  0  0
   -5.1636  -22.2029   21.5959 H   0  0  0  0  0  0  0  0  0  0  0  0
   -6.3438  -21.1044   22.9294 H   0  0  0  0  0  0  0  0  0  0  0  0
   -4.7178  -21.6306   24.8071 H   0  0  0  0  0  0  0  0  0  0  0  0
   -7.8572  -22.6249   28.0771 H   0  0  0  0  0  0  0  0  0  0  0  0
  -10.0985  -23.9799   28.0014 H   0  0  0  0  0  0  0  0  0  0  0  0
  -10.5581  -25.0829   25.8605 H   0  0  0  0  0  0  0  0  0  0  0  0
   -9.0269  -24.1066   23.9293 H   0  0  0  0  0  0  0  0  0  0  0  0
   -0.2835  -19.8587   16.9522 H   0  0  0  0  0  0  0  0  0  0  0  0
    1.6878  -19.8481   17.0097 H   0  0  0  0  0  0  0  0  0  0  0  0
    1.2243  -20.2259   18.6565 H   0  0  0  0  0  0  0  0  0  0  0  0
    2.8706  -18.6919   19.1137 H   0  0  0  0  0  0  0  0  0  0  0  0
    2.6852  -17.8361   17.5899 H   0  0  0  0  0  0  0  0  0  0  0  0
    1.8008  -16.4901   19.2830 H   0  0  0  0  0  0  0  0  0  0  0  0
   -0.3934  -15.8557   18.4102 H   0  0  0  0  0  0  0  0  0  0  0  0
    0.9068  -16.5494   17.6373 H   0  0  0  0  0  0  0  0  0  0  0  0
  1  2  2  0
  2  3  1  0
  3  4  1  0
  4  5  1  0
  5  6  1  0
  6  7  1  0
  7  8  2  0
  8  9  1  0
  9 10  2  0
 10 11  1  0
 11 12  2  0
 12 13  1  0
 13 14  2  0
  2 15  1  0
 15 16  2  0
 16 17  1  0
 17 18  1  0
 18 19  1  0
 19 20  1  0
 14  6  1  0
 20 15  1  0
 14  9  1  0
  3 21  1  0
  4 22  1  0
  4 23  1  0
  5 24  1  0
  5 25  1  0
  7 26  1  0
 10 27  1  0
 11 28  1  0
 12 29  1  0
 13 30  1  0
 16 31  1  0
 17 32  1  0
 17 33  1  0
 18 34  1  0
 18 35  1  0
 19 36  1  0
 20 37  1  0
 20 38  1  0
M  END
>  <Energy>  (1494) 
1185.3927723450556

>  <compound_id>  (1494) 
17840

>  <target_id>  (1494) 
1

>  <reference_id>  (1494) 
85

>  <inspiration_ids>  (1494) 
[85, 94]

>  <energy_score>  (1494) 
1149.314273685361

>  <distance_score>  (1494) 
9.533542623198773

>  <path>  (1494) 
/opt/xchem-fragalysis-2/maxwin/BulkDock/SCRATCH/511014/C17840-P85/C17840-P85.minimised.mol

>  <scratch_subdir>  (1494) 
/opt/xchem-fragalysis-2/maxwin/BulkDock/SCRATCH/511014/C17840-P85

>  <fragmenstein_runtime>  (1494) 
12.551259994506836

>  <fragmenstein_outcome>  (1494) 
too moved

>  <fragmenstein_mode>  (1494) 
expansion

>  <fragmenstein_error>  (1494) 


$$$$
C17840-P94
     RDKit          3D

 38 40  0  0  0  0  0  0  0  0999 V2000
   -5.2490  -20.7960   20.7181 O   0  0  0  0  0  0  0  0  0  0  0  0
   -5.9688  -20.0207   21.3501 C   0  0  0  0  0  0  0  0  0  0  0  0
   -6.6209  -20.4323   23.0620 N   0  0  0  0  0  0  0  0  0  0  0  0
   -6.4886  -22.0819   24.1490 C   0  0  0  0  0  0  0  0  0  0  0  0
   -7.2155  -22.8375   25.9448 C   0  0  0  0  0  0  0  0  0  0  0  0
   -8.8048  -23.7288   26.6709 N   0  0  0  0  0  0  0  0  0  0  0  0
  -10.1290  -24.0903   25.9819 C   0  0  0  0  0  0  0  0  0  0  0  0
  -11.1733  -23.7047   26.6785 N   0  0  0  0  0  0  0  0  0  0  0  0
  -10.7384  -23.6589   27.9571 C   0  0  0  0  0  0  0  0  0  0  0  0
  -11.5146  -23.6242   29.1251 C   0  0  0  0  0  0  0  0  0  0  0  0
  -11.1547  -24.4679   30.1736 C   0  0  0  0  0  0  0  0  0  0  0  0
  -10.0595  -25.2959   30.0144 C   0  0  0  0  0  0  0  0  0  0  0  0
   -9.2121  -25.1232   28.9069 C   0  0  0  0  0  0  0  0  0  0  0  0
   -9.3894  -24.0450   27.9976 C   0  0  0  0  0  0  0  0  0  0  0  0
   -6.3351  -18.7512   20.4275 C   0  0  0  0  0  0  0  0  0  0  0  0
   -6.3566  -19.2329   19.1433 C   0  0  0  0  0  0  0  0  0  0  0  0
   -5.0071  -19.5064   18.4058 C   0  0  0  0  0  0  0  0  0  0  0  0
   -4.1588  -18.3796   17.9611 C   0  0  0  0  0  0  0  0  0  0  0  0
   -4.7203  -17.3192   18.7002 N   0  0  0  0  0  0  0  0  0  0  0  0
   -5.2183  -17.8236   20.0369 C   0  0  0  0  0  0  0  0  0  0  0  0
   -7.1150  -19.6285   23.4258 H   0  0  0  0  0  0  0  0  0  0  0  0
   -5.5109  -21.8457   24.5809 H   0  0  0  0  0  0  0  0  0  0  0  0
   -6.4499  -22.9323   23.4757 H   0  0  0  0  0  0  0  0  0  0  0  0
   -7.2142  -22.0459   26.7252 H   0  0  0  0  0  0  0  0  0  0  0  0
   -6.3780  -23.3973   26.3162 H   0  0  0  0  0  0  0  0  0  0  0  0
  -10.1408  -24.2989   24.9208 H   0  0  0  0  0  0  0  0  0  0  0  0
  -12.4621  -23.1115   29.1403 H   0  0  0  0  0  0  0  0  0  0  0  0
  -11.7904  -24.5505   31.0514 H   0  0  0  0  0  0  0  0  0  0  0  0
   -9.8587  -26.0806   30.7421 H   0  0  0  0  0  0  0  0  0  0  0  0
   -8.4745  -25.8776   28.7038 H   0  0  0  0  0  0  0  0  0  0  0  0
   -7.1535  -19.7899   18.7069 H   0  0  0  0  0  0  0  0  0  0  0  0
   -4.3231  -20.0843   19.0259 H   0  0  0  0  0  0  0  0  0  0  0  0
   -5.2192  -20.1238   17.6064 H   0  0  0  0  0  0  0  0  0  0  0  0
   -4.1139  -18.1378   16.9105 H   0  0  0  0  0  0  0  0  0  0  0  0
   -3.1335  -18.5235   18.3140 H   0  0  0  0  0  0  0  0  0  0  0  0
   -3.8829  -16.7665   18.8681 H   0  0  0  0  0  0  0  0  0  0  0  0
   -4.3764  -18.4914   20.0321 H   0  0  0  0  0  0  0  0  0  0  0  0
   -5.2629  -17.1196   20.8490 H   0  0  0  0  0  0  0  0  0  0  0  0
  1  2  2  0
  2  3  1  0
  3  4  1  0
  4  5  1  0
  5  6  1  0
  6  7  1  0
  7  8  2  0
  8  9  1  0
  9 10  2  0
 10 11  1  0
 11 12  2  0
 12 13  1  0
 13 14  2  0
  2 15  1  0
 15 16  2  0
 16 17  1  0
 17 18  1  0
 18 19  1  0
 19 20  1  0
 14  6  1  0
 20 15  1  0
 14  9  1  0
  3 21  1  0
  4 22  1  0
  4 23  1  0
  5 24  1  0
  5 25  1  0
  7 26  1  0
 10 27  1  0
 11 28  1  0
 12 29  1  0
 13 30  1  0
 16 31  1  0
 17 32  1  0
 17 33  1  0
 18 34  1  0
 18 35  1  0
 19 36  1  0
 20 37  1  0
 20 38  1  0
M  END
>  <Energy>  (1495) 
588.91425244762877

>  <compound_id>  (1495) 
17840

>  <target_id>  (1495) 
1

>  <reference_id>  (1495) 
94

>  <inspiration_ids>  (1495) 
[85, 94]

>  <energy_score>  (1495) 
552.8357537879325

>  <distance_score>  (1495) 
9.928648757427071

>  <path>  (1495) 
/opt/xchem-fragalysis-2/maxwin/BulkDock/SCRATCH/511014/C17840-P94/C17840-P94.minimised.mol

>  <scratch_subdir>  (1495) 
/opt/xchem-fragalysis-2/maxwin/BulkDock/SCRATCH/511014/C17840-P94

>  <fragmenstein_runtime>  (1495) 
20.381592273712158

>  <fragmenstein_outcome>  (1495) 
too moved

>  <fragmenstein_mode>  (1495) 
expansion

>  <fragmenstein_error>  (1495) 


$$$$
C17846-P186
     RDKit          3D

 39 40  0  0  0  0  0  0  0  0999 V2000
   -1.9559  -16.8392   27.8947 C   0  0  0  0  0  0  0  0  0  0  0  0
   -2.6760  -16.2408   29.0529 C   0  0  0  0  0  0  0  0  0  0  0  0
   -3.8751  -16.7323   29.3461 N   0  0  0  0  0  0  0  0  0  0  0  0
   -4.2731  -16.1636   30.9011 S   0  0  0  0  0  0  0  0  0  0  0  0
   -2.8284  -15.2570   31.0011 C   0  0  0  0  0  0  0  0  0  0  0  0
   -2.6424  -14.9251   29.6713 C   0  0  0  0  0  0  0  0  0  0  0  0
   -1.9355  -13.7610   28.9543 C   0  0  0  0  0  0  0  0  0  0  0  0
   -1.0946  -14.2096   28.1962 O   0  0  0  0  0  0  0  0  0  0  0  0
   -2.3074  -12.0316   29.4271 N   0  0  0  0  0  0  0  0  0  0  0  0
   -1.4034  -10.3354   29.0245 C   0  0  0  0  0  0  0  0  0  0  0  0
   -0.7959  -10.3394   30.3999 C   0  0  0  0  0  0  0  0  0  0  0  0
   -1.6103   -9.8731   31.4345 O   0  0  0  0  0  0  0  0  0  0  0  0
   -1.0408   -8.4104   29.4507 C   0  0  0  0  0  0  0  0  0  0  0  0
   -1.5098   -7.6982   30.8567 C   0  0  0  0  0  0  0  0  0  0  0  0
    0.3300   -7.7485   29.3393 N   0  0  0  0  0  0  0  0  0  0  0  0
    0.7798   -6.3899   29.7195 C   0  0  0  0  0  0  0  0  0  0  0  0
    0.1984   -5.5053   30.2811 O   0  0  0  0  0  0  0  0  0  0  0  0
    2.0953   -5.9736   29.2782 C   0  0  0  0  0  0  0  0  0  0  0  0
    2.9330   -6.2940   28.2343 C   0  0  0  0  0  0  0  0  0  0  0  0
    4.0661   -5.5231   28.2527 N   0  0  0  0  0  0  0  0  0  0  0  0
    3.8704   -4.6338   29.1971 C   0  0  0  0  0  0  0  0  0  0  0  0
    2.6892   -4.8500   29.8308 N   0  0  0  0  0  0  0  0  0  0  0  0
   -2.5051  -17.6614   27.4316 H   0  0  0  0  0  0  0  0  0  0  0  0
   -1.7763  -16.1184   27.0937 H   0  0  0  0  0  0  0  0  0  0  0  0
   -0.9871  -17.2251   28.2278 H   0  0  0  0  0  0  0  0  0  0  0  0
   -2.5011  -14.7975   31.9115 H   0  0  0  0  0  0  0  0  0  0  0  0
   -3.0948  -12.0054   29.9857 H   0  0  0  0  0  0  0  0  0  0  0  0
   -0.8552  -10.2498   28.1105 H   0  0  0  0  0  0  0  0  0  0  0  0
   -0.0010   -9.6415   30.4203 H   0  0  0  0  0  0  0  0  0  0  0  0
   -0.4756  -11.3179   30.6112 H   0  0  0  0  0  0  0  0  0  0  0  0
   -1.0382   -9.6779   32.1967 H   0  0  0  0  0  0  0  0  0  0  0  0
   -1.5936   -7.8333   28.7052 H   0  0  0  0  0  0  0  0  0  0  0  0
   -0.7591   -7.8361   31.6485 H   0  0  0  0  0  0  0  0  0  0  0  0
   -1.5329   -6.6244   30.7924 H   0  0  0  0  0  0  0  0  0  0  0  0
   -2.5048   -7.9591   31.2229 H   0  0  0  0  0  0  0  0  0  0  0  0
    1.1160   -8.2636   28.9486 H   0  0  0  0  0  0  0  0  0  0  0  0
    2.7836   -7.0171   27.4436 H   0  0  0  0  0  0  0  0  0  0  0  0
    4.5369   -3.8209   29.4549 H   0  0  0  0  0  0  0  0  0  0  0  0
    2.2652   -4.2755   30.5487 H   0  0  0  0  0  0  0  0  0  0  0  0
  1  2  1  0
  2  3  2  0
  3  4  1  0
  4  5  1  0
  5  6  2  0
  6  7  1  0
  7  8  2  0
  7  9  1  0
  9 10  1  0
 10 11  1  0
 11 12  1  0
 10 13  1  0
 13 14  1  0
 13 15  1  0
 15 16  1  0
 16 17  2  0
 16 18  1  0
 18 19  2  0
 19 20  1  0
 20 21  2  0
 21 22  1  0
  6  2  1  0
 22 18  1  0
  1 23  1  0
  1 24  1  0
  1 25  1  0
  5 26  1  0
  9 27  1  0
 10 28  1  0
 11 29  1  0
 11 30  1  0
 12 31  1  0
 13 32  1  0
 14 33  1  0
 14 34  1  0
 14 35  1  0
 15 36  1  0
 19 37  1  0
 21 38  1  0
 22 39  1  0
M  END
>  <Energy>  (1496) 
344.76083299819015

>  <compound_id>  (1496) 
17846

>  <target_id>  (1496) 
1

>  <reference_id>  (1496) 
186

>  <inspiration_ids>  (1496) 
[186, 101]

>  <energy_score>  (1496) 
333.58514223125206

>  <distance_score>  (1496) 
8.237546602572595

>  <path>  (1496) 
/opt/xchem-fragalysis-2/maxwin/BulkDock/SCRATCH/511014/C17846-P186/C17846-P186.minimised.mol

>  <scratch_subdir>  (1496) 
/opt/xchem-fragalysis-2/maxwin/BulkDock/SCRATCH/511014/C17846-P186

>  <fragmenstein_runtime>  (1496) 
22.122851848602295

>  <fragmenstein_outcome>  (1496) 
too moved

>  <fragmenstein_mode>  (1496) 
expansion

>  <fragmenstein_error>  (1496) 


$$$$
C17846-P101
     RDKit          3D

 39 40  0  0  0  0  0  0  0  0999 V2000
   -7.5056  -21.6012   32.6419 C   0  0  0  0  0  0  0  0  0  0  0  0
   -7.0366  -21.2232   31.0370 C   0  0  0  0  0  0  0  0  0  0  0  0
   -7.3949  -22.0998   29.0682 N   0  0  0  0  0  0  0  0  0  0  0  0
   -7.1437  -20.8148   27.5009 S   0  0  0  0  0  0  0  0  0  0  0  0
   -7.9749  -19.0474   28.8723 C   0  0  0  0  0  0  0  0  0  0  0  0
   -6.7875  -19.0986   30.4220 C   0  0  0  0  0  0  0  0  0  0  0  0
   -5.9368  -17.3309   30.0040 C   0  0  0  0  0  0  0  0  0  0  0  0
   -5.6028  -17.3247   28.9329 O   0  0  0  0  0  0  0  0  0  0  0  0
   -5.7365  -15.6939   30.8291 N   0  0  0  0  0  0  0  0  0  0  0  0
   -5.1808  -13.8978   30.1494 C   0  0  0  0  0  0  0  0  0  0  0  0
   -3.5396  -13.3502   29.6540 C   0  0  0  0  0  0  0  0  0  0  0  0
   -3.5608  -12.2761   28.6461 O   0  0  0  0  0  0  0  0  0  0  0  0
   -4.8092  -12.0728   30.7884 C   0  0  0  0  0  0  0  0  0  0  0  0
   -5.8227  -11.3181   31.5040 C   0  0  0  0  0  0  0  0  0  0  0  0
   -3.3740  -10.8694   31.1213 N   0  0  0  0  0  0  0  0  0  0  0  0
   -3.2998   -9.5509   32.0685 C   0  0  0  0  0  0  0  0  0  0  0  0
   -4.1341   -9.1204   32.8200 O   0  0  0  0  0  0  0  0  0  0  0  0
   -2.1225   -8.6212   32.0337 C   0  0  0  0  0  0  0  0  0  0  0  0
   -1.1787   -8.0474   31.1782 C   0  0  0  0  0  0  0  0  0  0  0  0
   -0.7248   -6.8311   31.6283 N   0  0  0  0  0  0  0  0  0  0  0  0
   -1.1852   -6.7220   32.8443 C   0  0  0  0  0  0  0  0  0  0  0  0
   -1.9499   -7.7992   33.1638 N   0  0  0  0  0  0  0  0  0  0  0  0
   -8.4540  -21.1316   32.8659 H   0  0  0  0  0  0  0  0  0  0  0  0
   -6.8005  -21.0512   33.2673 H   0  0  0  0  0  0  0  0  0  0  0  0
   -7.7364  -22.6546   32.8284 H   0  0  0  0  0  0  0  0  0  0  0  0
   -8.8470  -19.3402   28.3663 H   0  0  0  0  0  0  0  0  0  0  0  0
   -5.9756  -15.8070   31.8103 H   0  0  0  0  0  0  0  0  0  0  0  0
   -6.0479  -13.7080   29.5142 H   0  0  0  0  0  0  0  0  0  0  0  0
   -2.8665  -12.7342   30.1847 H   0  0  0  0  0  0  0  0  0  0  0  0
   -2.8970  -14.2554   29.4802 H   0  0  0  0  0  0  0  0  0  0  0  0
   -3.1383  -11.4924   29.0027 H   0  0  0  0  0  0  0  0  0  0  0  0
   -5.0736  -11.7686   29.7923 H   0  0  0  0  0  0  0  0  0  0  0  0
   -5.4856  -10.6635   32.2938 H   0  0  0  0  0  0  0  0  0  0  0  0
   -6.1970  -10.6041   30.7458 H   0  0  0  0  0  0  0  0  0  0  0  0
   -6.6245  -11.9499   31.8655 H   0  0  0  0  0  0  0  0  0  0  0  0
   -2.4776  -11.0010   30.6577 H   0  0  0  0  0  0  0  0  0  0  0  0
   -0.8216   -8.3606   30.2022 H   0  0  0  0  0  0  0  0  0  0  0  0
   -1.0094   -5.9016   33.5287 H   0  0  0  0  0  0  0  0  0  0  0  0
   -2.4961   -7.8962   34.0113 H   0  0  0  0  0  0  0  0  0  0  0  0
  1  2  1  0
  2  3  2  0
  3  4  1  0
  4  5  1  0
  5  6  2  0
  6  7  1  0
  7  8  2  0
  7  9  1  0
  9 10  1  0
 10 11  1  0
 11 12  1  0
 10 13  1  0
 13 14  1  0
 13 15  1  0
 15 16  1  0
 16 17  2  0
 16 18  1  0
 18 19  2  0
 19 20  1  0
 20 21  2  0
 21 22  1  0
  6  2  1  0
 22 18  1  0
  1 23  1  0
  1 24  1  0
  1 25  1  0
  5 26  1  0
  9 27  1  0
 10 28  1  0
 11 29  1  0
 11 30  1  0
 12 31  1  0
 13 32  1  0
 14 33  1  0
 14 34  1  0
 14 35  1  0
 15 36  1  0
 19 37  1  0
 21 38  1  0
 22 39  1  0
M  END
>  <Energy>  (1497) 
1478.1272008878111

>  <compound_id>  (1497) 
17846

>  <target_id>  (1497) 
1

>  <reference_id>  (1497) 
101

>  <inspiration_ids>  (1497) 
[186, 101]

>  <energy_score>  (1497) 
1466.9515101209154

>  <distance_score>  (1497) 
6.017885307123221

>  <path>  (1497) 
/opt/xchem-fragalysis-2/maxwin/BulkDock/SCRATCH/511014/C17846-P101/C17846-P101.minimised.mol

>  <scratch_subdir>  (1497) 
/opt/xchem-fragalysis-2/maxwin/BulkDock/SCRATCH/511014/C17846-P101

>  <fragmenstein_runtime>  (1497) 
17.67706060409546

>  <fragmenstein_outcome>  (1497) 
too moved

>  <fragmenstein_mode>  (1497) 
expansion

>  <fragmenstein_error>  (1497) 


$$$$
C17869-P186
     RDKit          3D

 40 42  0  0  0  0  0  0  0  0999 V2000
    0.1000   -2.9764   30.6304 O   0  0  0  0  0  0  0  0  0  0  0  0
   -0.3574   -3.8629   31.2827 C   0  0  0  0  0  0  0  0  0  0  0  0
   -0.7544   -5.1753   30.9155 N   0  0  0  0  0  0  0  0  0  0  0  0
   -0.6394   -5.8985   29.6386 C   0  0  0  0  0  0  0  0  0  0  0  0
   -1.4193   -7.4555   29.7657 C   0  0  0  0  0  0  0  0  0  0  0  0
   -0.8749   -8.9142   29.0934 N   0  0  0  0  0  0  0  0  0  0  0  0
   -1.6172  -10.3946   29.4271 C   0  0  0  0  0  0  0  0  0  0  0  0
   -1.2949  -11.1058   30.3115 O   0  0  0  0  0  0  0  0  0  0  0  0
   -3.3204  -10.9725   28.3818 C   0  0  0  0  0  0  0  0  0  0  0  0
   -4.3436  -12.1342   28.3916 O   0  0  0  0  0  0  0  0  0  0  0  0
   -5.5759  -12.1995   27.3924 C   0  0  0  0  0  0  0  0  0  0  0  0
   -6.8614  -13.2900   27.3385 C   0  0  0  0  0  0  0  0  0  0  0  0
   -7.6198  -13.2477   26.1584 C   0  0  0  0  0  0  0  0  0  0  0  0
   -6.9628  -12.0342   25.0929 S   0  0  0  0  0  0  0  0  0  0  0  0
   -5.6829  -11.5225   26.1419 N   0  0  0  0  0  0  0  0  0  0  0  0
    0.3920   -8.2372   29.7504 C   0  0  0  0  0  0  0  0  0  0  0  0
   -0.1831   -8.3449   31.4676 C   0  0  0  0  0  0  0  0  0  0  0  0
    0.8431   -7.4543   31.0506 C   0  0  0  0  0  0  0  0  0  0  0  0
   -0.4782   -3.6974   32.7190 C   0  0  0  0  0  0  0  0  0  0  0  0
   -0.3538   -4.5980   33.7652 C   0  0  0  0  0  0  0  0  0  0  0  0
   -0.4110   -3.9706   34.9781 N   0  0  0  0  0  0  0  0  0  0  0  0
   -0.5952   -2.7032   34.6953 C   0  0  0  0  0  0  0  0  0  0  0  0
   -0.6244   -2.4865   33.3486 N   0  0  0  0  0  0  0  0  0  0  0  0
   -1.0218   -5.6825   31.7474 H   0  0  0  0  0  0  0  0  0  0  0  0
   -1.0630   -5.2373   28.8719 H   0  0  0  0  0  0  0  0  0  0  0  0
    0.4160   -5.9159   29.3462 H   0  0  0  0  0  0  0  0  0  0  0  0
   -2.1083   -7.5598   30.6135 H   0  0  0  0  0  0  0  0  0  0  0  0
   -2.0996   -7.3036   28.9209 H   0  0  0  0  0  0  0  0  0  0  0  0
   -2.7228  -11.4860   27.5513 H   0  0  0  0  0  0  0  0  0  0  0  0
   -4.2116   -9.2120   28.0947 H   0  0  0  0  0  0  0  0  0  0  0  0
   -7.0705  -13.9385   28.1798 H   0  0  0  0  0  0  0  0  0  0  0  0
   -8.4948  -13.8185   25.8888 H   0  0  0  0  0  0  0  0  0  0  0  0
    1.1990   -8.8571   29.3747 H   0  0  0  0  0  0  0  0  0  0  0  0
   -0.3304   -9.3688   31.7126 H   0  0  0  0  0  0  0  0  0  0  0  0
   -0.9482   -7.8185   32.0324 H   0  0  0  0  0  0  0  0  0  0  0  0
    0.9090   -6.3802   31.1337 H   0  0  0  0  0  0  0  0  0  0  0  0
    1.6524   -7.4368   31.7643 H   0  0  0  0  0  0  0  0  0  0  0  0
   -0.1792   -5.6648   33.7229 H   0  0  0  0  0  0  0  0  0  0  0  0
   -0.7023   -1.9022   35.4147 H   0  0  0  0  0  0  0  0  0  0  0  0
   -0.7102   -1.5923   32.8830 H   0  0  0  0  0  0  0  0  0  0  0  0
  1  2  2  0
  2  3  1  0
  3  4  1  0
  4  5  1  0
  5  6  1  0
  6  7  1  0
  7  8  2  0
  7  9  1  0
  9 10  1  0
 10 11  1  0
 11 12  1  0
 12 13  2  0
 13 14  1  0
 14 15  1  0
  6 16  1  0
 16 17  1  0
 17 18  1  0
  2 19  1  0
 19 20  2  0
 20 21  1  0
 21 22  2  0
 22 23  1  0
 15 11  2  0
 18 16  1  0
 23 19  1  0
  3 24  1  0
  4 25  1  0
  4 26  1  0
  5 27  1  0
  5 28  1  0
  9 29  1  0
  9 30  1  0
 12 31  1  0
 13 32  1  0
 16 33  1  0
 17 34  1  0
 17 35  1  0
 18 36  1  0
 18 37  1  0
 20 38  1  0
 22 39  1  0
 23 40  1  0
M  END
>  <Energy>  (1498) 
701.54736141939588

>  <compound_id>  (1498) 
17869

>  <target_id>  (1498) 
1

>  <reference_id>  (1498) 
186

>  <inspiration_ids>  (1498) 
[186, 101]

>  <energy_score>  (1498) 
661.750619076241

>  <distance_score>  (1498) 
8.90024979280198

>  <path>  (1498) 
/opt/xchem-fragalysis-2/maxwin/BulkDock/SCRATCH/511014/C17869-P186/C17869-P186.minimised.mol

>  <scratch_subdir>  (1498) 
/opt/xchem-fragalysis-2/maxwin/BulkDock/SCRATCH/511014/C17869-P186

>  <fragmenstein_runtime>  (1498) 
19.29573369026184

>  <fragmenstein_outcome>  (1498) 
too moved

>  <fragmenstein_mode>  (1498) 
expansion

>  <fragmenstein_error>  (1498) 


$$$$
C17869-P101
     RDKit          3D

 40 42  0  0  0  0  0  0  0  0999 V2000
   -3.0629   -8.3507   34.9732 O   0  0  0  0  0  0  0  0  0  0  0  0
   -2.4448   -8.0362   34.0050 C   0  0  0  0  0  0  0  0  0  0  0  0
   -2.6447   -8.3591   32.6284 N   0  0  0  0  0  0  0  0  0  0  0  0
   -3.7156   -9.0866   31.9665 C   0  0  0  0  0  0  0  0  0  0  0  0
   -3.6391  -10.7090   31.5272 C   0  0  0  0  0  0  0  0  0  0  0  0
   -3.2420  -12.0047   30.2356 N   0  0  0  0  0  0  0  0  0  0  0  0
   -4.8154  -12.7043   29.4142 C   0  0  0  0  0  0  0  0  0  0  0  0
   -5.0931  -12.0462   28.4533 O   0  0  0  0  0  0  0  0  0  0  0  0
   -6.1377  -14.4526   29.4807 C   0  0  0  0  0  0  0  0  0  0  0  0
   -7.0504  -16.0695   28.5103 O   0  0  0  0  0  0  0  0  0  0  0  0
   -8.0117  -17.7426   28.6674 C   0  0  0  0  0  0  0  0  0  0  0  0
   -8.8935  -19.4058   28.4324 C   0  0  0  0  0  0  0  0  0  0  0  0
  -10.1963  -20.5304   29.2766 C   0  0  0  0  0  0  0  0  0  0  0  0
   -9.5500  -20.6240   27.7034 S   0  0  0  0  0  0  0  0  0  0  0  0
   -9.0773  -18.2830   27.6825 N   0  0  0  0  0  0  0  0  0  0  0  0
   -2.0239  -10.6395   29.7627 C   0  0  0  0  0  0  0  0  0  0  0  0
   -0.9898   -9.2218   29.7899 C   0  0  0  0  0  0  0  0  0  0  0  0
   -0.5406  -10.3819   29.0913 C   0  0  0  0  0  0  0  0  0  0  0  0
   -1.3519   -7.0884   34.1880 C   0  0  0  0  0  0  0  0  0  0  0  0
   -1.2124   -6.1978   35.2409 C   0  0  0  0  0  0  0  0  0  0  0  0
   -0.1200   -5.3824   35.1020 N   0  0  0  0  0  0  0  0  0  0  0  0
    0.4147   -5.7448   33.9692 C   0  0  0  0  0  0  0  0  0  0  0  0
   -0.2980   -6.7522   33.3791 N   0  0  0  0  0  0  0  0  0  0  0  0
   -1.9764   -7.8504   32.0722 H   0  0  0  0  0  0  0  0  0  0  0  0
   -4.5053   -9.0893   32.7308 H   0  0  0  0  0  0  0  0  0  0  0  0
   -4.0545   -8.3970   31.2303 H   0  0  0  0  0  0  0  0  0  0  0  0
   -4.6895  -10.9958   31.7374 H   0  0  0  0  0  0  0  0  0  0  0  0
   -2.7257  -10.5355   32.0812 H   0  0  0  0  0  0  0  0  0  0  0  0
   -6.0561  -14.8271   30.4844 H   0  0  0  0  0  0  0  0  0  0  0  0
   -6.9784  -13.8576   29.1327 H   0  0  0  0  0  0  0  0  0  0  0  0
   -9.6384  -20.1193   29.5853 H   0  0  0  0  0  0  0  0  0  0  0  0
  -10.8865  -21.3755   29.1215 H   0  0  0  0  0  0  0  0  0  0  0  0
   -1.6934  -10.8128   30.7808 H   0  0  0  0  0  0  0  0  0  0  0  0
   -0.5732   -8.6825   30.6226 H   0  0  0  0  0  0  0  0  0  0  0  0
   -0.9673   -8.3804   29.0653 H   0  0  0  0  0  0  0  0  0  0  0  0
    0.4125  -10.7334   29.4839 H   0  0  0  0  0  0  0  0  0  0  0  0
   -0.4097  -10.1586   28.0363 H   0  0  0  0  0  0  0  0  0  0  0  0
   -1.8722   -6.0927   36.0917 H   0  0  0  0  0  0  0  0  0  0  0  0
    1.3218   -5.3488   33.5325 H   0  0  0  0  0  0  0  0  0  0  0  0
    0.0580   -7.2557   32.5778 H   0  0  0  0  0  0  0  0  0  0  0  0
  1  2  2  0
  2  3  1  0
  3  4  1  0
  4  5  1  0
  5  6  1  0
  6  7  1  0
  7  8  2  0
  7  9  1  0
  9 10  1  0
 10 11  1  0
 11 12  1  0
 12 13  2  0
 13 14  1  0
 14 15  1  0
  6 16  1  0
 16 17  1  0
 17 18  1  0
  2 19  1  0
 19 20  2  0
 20 21  1  0
 21 22  2  0
 22 23  1  0
 15 11  2  0
 18 16  1  0
 23 19  1  0
  3 24  1  0
  4 25  1  0
  4 26  1  0
  5 27  1  0
  5 28  1  0
  9 29  1  0
  9 30  1  0
 12 31  1  0
 13 32  1  0
 16 33  1  0
 17 34  1  0
 17 35  1  0
 18 36  1  0
 18 37  1  0
 20 38  1  0
 22 39  1  0
 23 40  1  0
M  END
>  <Energy>  (1499) 
1715.2484402613043

>  <compound_id>  (1499) 
17869

>  <target_id>  (1499) 
1

>  <reference_id>  (1499) 
101

>  <inspiration_ids>  (1499) 
[186, 101]

>  <energy_score>  (1499) 
1675.451697918172

>  <distance_score>  (1499) 
6.88141679805403

>  <path>  (1499) 
/opt/xchem-fragalysis-2/maxwin/BulkDock/SCRATCH/511014/C17869-P101/C17869-P101.minimised.mol

>  <scratch_subdir>  (1499) 
/opt/xchem-fragalysis-2/maxwin/BulkDock/SCRATCH/511014/C17869-P101

>  <fragmenstein_runtime>  (1499) 
17.28430938720703

>  <fragmenstein_outcome>  (1499) 
too moved

>  <fragmenstein_mode>  (1499) 
expansion

>  <fragmenstein_error>  (1499) 


$$$$
C17876-P186
     RDKit          3D

 36 38  0  0  0  0  0  0  0  0999 V2000
   -8.5952  -14.3681   28.4292 O   0  0  0  0  0  0  0  0  0  0  0  0
   -8.3219  -14.1101   27.3061 C   0  0  0  0  0  0  0  0  0  0  0  0
   -7.0993  -13.3761   26.7293 N   0  0  0  0  0  0  0  0  0  0  0  0
   -5.9063  -12.7134   27.4328 C   0  0  0  0  0  0  0  0  0  0  0  0
   -3.7332  -12.5431   27.4352 C   0  0  0  0  0  0  0  0  0  0  0  0
   -2.7122  -11.9138   28.9777 N   0  0  0  0  0  0  0  0  0  0  0  0
   -1.4778  -10.6190   29.1382 C   0  0  0  0  0  0  0  0  0  0  0  0
   -1.0058   -9.9777   28.2288 O   0  0  0  0  0  0  0  0  0  0  0  0
   -0.9762  -10.0561   30.4608 C   0  0  0  0  0  0  0  0  0  0  0  0
   -0.1173   -8.8959   30.2737 C   0  0  0  0  0  0  0  0  0  0  0  0
   -0.1171   -7.9399   31.2508 N   0  0  0  0  0  0  0  0  0  0  0  0
   -1.0754   -8.3211   32.0316 C   0  0  0  0  0  0  0  0  0  0  0  0
   -1.6809   -9.4372   31.5329 N   0  0  0  0  0  0  0  0  0  0  0  0
   -5.8437  -11.8955   28.3843 C   0  0  0  0  0  0  0  0  0  0  0  0
   -5.1234  -12.0782   29.3829 C   0  0  0  0  0  0  0  0  0  0  0  0
   -6.3862  -10.6295   29.3646 C   0  0  0  0  0  0  0  0  0  0  0  0
   -9.4109  -14.6372   26.3756 C   0  0  0  0  0  0  0  0  0  0  0  0
  -10.6927  -14.0183   26.0459 C   0  0  0  0  0  0  0  0  0  0  0  0
  -11.5615  -14.6819   25.2787 N   0  0  0  0  0  0  0  0  0  0  0  0
  -10.9247  -16.1765   25.0304 S   0  0  0  0  0  0  0  0  0  0  0  0
   -9.6784  -15.9718   26.1658 C   0  0  0  0  0  0  0  0  0  0  0  0
   -7.1371  -13.3993   25.7472 H   0  0  0  0  0  0  0  0  0  0  0  0
   -6.4750  -13.3899   28.1560 H   0  0  0  0  0  0  0  0  0  0  0  0
   -3.3641  -11.9479   26.6224 H   0  0  0  0  0  0  0  0  0  0  0  0
   -3.1475  -13.3886   27.0443 H   0  0  0  0  0  0  0  0  0  0  0  0
   -2.8607  -12.3340   29.8538 H   0  0  0  0  0  0  0  0  0  0  0  0
    0.5315   -8.7628   29.4135 H   0  0  0  0  0  0  0  0  0  0  0  0
   -1.4341   -7.8076   32.9139 H   0  0  0  0  0  0  0  0  0  0  0  0
   -2.6503   -9.5831   31.7653 H   0  0  0  0  0  0  0  0  0  0  0  0
   -5.3085  -11.6965   27.4510 H   0  0  0  0  0  0  0  0  0  0  0  0
   -4.2520  -11.6534   29.6457 H   0  0  0  0  0  0  0  0  0  0  0  0
   -5.4225  -13.1071   29.7750 H   0  0  0  0  0  0  0  0  0  0  0  0
   -7.0754  -10.5188   30.1374 H   0  0  0  0  0  0  0  0  0  0  0  0
   -6.6403   -9.7578   28.7302 H   0  0  0  0  0  0  0  0  0  0  0  0
  -10.9909  -13.0144   26.2962 H   0  0  0  0  0  0  0  0  0  0  0  0
   -9.2790  -16.7826   26.7331 H   0  0  0  0  0  0  0  0  0  0  0  0
  1  2  2  0
  2  3  1  0
  3  4  1  0
  4  5  1  0
  5  6  1  0
  6  7  1  0
  7  8  2  0
  7  9  1  0
  9 10  2  0
 10 11  1  0
 11 12  2  0
 12 13  1  0
  4 14  1  0
 14 15  1  0
 15 16  1  0
  2 17  1  0
 17 18  1  0
 18 19  2  0
 19 20  1  0
 20 21  1  0
 13  9  1  0
 16 14  1  0
 21 17  2  0
  3 22  1  0
  4 23  1  0
  5 24  1  0
  5 25  1  0
  6 26  1  0
 10 27  1  0
 12 28  1  0
 13 29  1  0
 14 30  1  0
 15 31  1  0
 15 32  1  0
 16 33  1  0
 16 34  1  0
 18 35  1  0
 21 36  1  0
M  END
>  <Energy>  (1500) 
636.63051876771158

>  <compound_id>  (1500) 
17876

>  <target_id>  (1500) 
1

>  <reference_id>  (1500) 
186

>  <inspiration_ids>  (1500) 
[186, 101]

>  <energy_score>  (1500) 
647.6344654644399

>  <distance_score>  (1500) 
8.926147731265225

>  <path>  (1500) 
/opt/xchem-fragalysis-2/maxwin/BulkDock/SCRATCH/511014/C17876-P186/C17876-P186.minimised.mol

>  <scratch_subdir>  (1500) 
/opt/xchem-fragalysis-2/maxwin/BulkDock/SCRATCH/511014/C17876-P186

>  <fragmenstein_runtime>  (1500) 
22.034111261367798

>  <fragmenstein_outcome>  (1500) 
too moved

>  <fragmenstein_mode>  (1500) 
expansion

>  <fragmenstein_error>  (1500) 


$$$$
C17876-P101
     RDKit          3D

 36 38  0  0  0  0  0  0  0  0999 V2000
   -5.9375  -19.7495   26.7988 O   0  0  0  0  0  0  0  0  0  0  0  0
   -7.1003  -19.7403   27.3074 C   0  0  0  0  0  0  0  0  0  0  0  0
   -7.9869  -18.1637   27.9241 N   0  0  0  0  0  0  0  0  0  0  0  0
   -7.3720  -16.3067   28.0696 C   0  0  0  0  0  0  0  0  0  0  0  0
   -6.4411  -14.6431   29.0650 C   0  0  0  0  0  0  0  0  0  0  0  0
   -5.0539  -13.4290   29.7876 N   0  0  0  0  0  0  0  0  0  0  0  0
   -5.1337  -12.2201   30.8082 C   0  0  0  0  0  0  0  0  0  0  0  0
   -6.0659  -11.7943   31.4663 O   0  0  0  0  0  0  0  0  0  0  0  0
   -3.8250  -11.4073   30.8773 C   0  0  0  0  0  0  0  0  0  0  0  0
   -3.3860  -10.1670   31.7141 C   0  0  0  0  0  0  0  0  0  0  0  0
   -2.1773   -9.6956   31.3598 N   0  0  0  0  0  0  0  0  0  0  0  0
   -1.8142  -10.4975   30.3827 C   0  0  0  0  0  0  0  0  0  0  0  0
   -2.7819  -11.4504   30.0263 N   0  0  0  0  0  0  0  0  0  0  0  0
   -8.6103  -15.8784   26.9096 C   0  0  0  0  0  0  0  0  0  0  0  0
   -9.0989  -14.4833   26.7891 C   0  0  0  0  0  0  0  0  0  0  0  0
   -8.5596  -15.2474   25.5977 C   0  0  0  0  0  0  0  0  0  0  0  0
   -8.0247  -21.3402   27.6498 C   0  0  0  0  0  0  0  0  0  0  0  0
   -9.8678  -21.5660   28.3460 C   0  0  0  0  0  0  0  0  0  0  0  0
  -10.5453  -22.7005   28.2440 N   0  0  0  0  0  0  0  0  0  0  0  0
   -9.4981  -23.9135   27.9302 S   0  0  0  0  0  0  0  0  0  0  0  0
   -7.7246  -22.7195   27.6322 C   0  0  0  0  0  0  0  0  0  0  0  0
   -8.9225  -18.4003   28.2006 H   0  0  0  0  0  0  0  0  0  0  0  0
   -8.1758  -16.1795   28.6357 H   0  0  0  0  0  0  0  0  0  0  0  0
   -6.0298  -15.2690   29.8759 H   0  0  0  0  0  0  0  0  0  0  0  0
   -7.1928  -13.8804   28.9580 H   0  0  0  0  0  0  0  0  0  0  0  0
   -4.1151  -13.5477   29.4950 H   0  0  0  0  0  0  0  0  0  0  0  0
   -4.0296   -9.6203   32.4059 H   0  0  0  0  0  0  0  0  0  0  0  0
   -0.9369  -10.3336   29.7543 H   0  0  0  0  0  0  0  0  0  0  0  0
   -2.7987  -12.0204   29.2003 H   0  0  0  0  0  0  0  0  0  0  0  0
   -9.3670  -16.6586   26.8492 H   0  0  0  0  0  0  0  0  0  0  0  0
   -8.4915  -13.7495   27.2902 H   0  0  0  0  0  0  0  0  0  0  0  0
  -10.1652  -14.2897   26.8129 H   0  0  0  0  0  0  0  0  0  0  0  0
   -9.2635  -15.6086   24.8539 H   0  0  0  0  0  0  0  0  0  0  0  0
   -7.6114  -14.9828   25.1994 H   0  0  0  0  0  0  0  0  0  0  0  0
  -10.3260  -20.8560   29.0214 H   0  0  0  0  0  0  0  0  0  0  0  0
   -6.7883  -23.1844   27.3781 H   0  0  0  0  0  0  0  0  0  0  0  0
  1  2  2  0
  2  3  1  0
  3  4  1  0
  4  5  1  0
  5  6  1  0
  6  7  1  0
  7  8  2  0
  7  9  1  0
  9 10  2  0
 10 11  1  0
 11 12  2  0
 12 13  1  0
  4 14  1  0
 14 15  1  0
 15 16  1  0
  2 17  1  0
 17 18  1  0
 18 19  2  0
 19 20  1  0
 20 21  1  0
 13  9  1  0
 16 14  1  0
 21 17  2  0
  3 22  1  0
  4 23  1  0
  5 24  1  0
  5 25  1  0
  6 26  1  0
 10 27  1  0
 12 28  1  0
 13 29  1  0
 14 30  1  0
 15 31  1  0
 15 32  1  0
 16 33  1  0
 16 34  1  0
 18 35  1  0
 21 36  1  0
M  END
>  <Energy>  (1501) 
637.15267059900202

>  <compound_id>  (1501) 
17876

>  <target_id>  (1501) 
1

>  <reference_id>  (1501) 
101

>  <inspiration_ids>  (1501) 
[186, 101]

>  <energy_score>  (1501) 
648.1566172957366

>  <distance_score>  (1501) 
9.71385104688306

>  <path>  (1501) 
/opt/xchem-fragalysis-2/maxwin/BulkDock/SCRATCH/511014/C17876-P101/C17876-P101.minimised.mol

>  <scratch_subdir>  (1501) 
/opt/xchem-fragalysis-2/maxwin/BulkDock/SCRATCH/511014/C17876-P101

>  <fragmenstein_runtime>  (1501) 
17.53135085105896

>  <fragmenstein_outcome>  (1501) 
too moved

>  <fragmenstein_mode>  (1501) 
expansion

>  <fragmenstein_error>  (1501) 


$$$$
C17879-P186
     RDKit          3D

 39 40  0  0  0  0  0  0  0  0999 V2000
    0.9175   -7.1291   31.8456 C   0  0  0  0  0  0  0  0  0  0  0  0
   -0.0232   -8.3401   31.6677 C   0  0  0  0  0  0  0  0  0  0  0  0
   -0.5266   -9.5079   30.6712 N   0  0  0  0  0  0  0  0  0  0  0  0
   -0.2193   -8.4646   29.6877 C   0  0  0  0  0  0  0  0  0  0  0  0
   -1.0982   -7.2102   29.6444 C   0  0  0  0  0  0  0  0  0  0  0  0
   -0.3763   -5.9479   29.7207 N   0  0  0  0  0  0  0  0  0  0  0  0
   -0.5764   -4.8003   30.5547 C   0  0  0  0  0  0  0  0  0  0  0  0
   -1.3371   -4.6148   31.4551 O   0  0  0  0  0  0  0  0  0  0  0  0
    0.4012   -3.8096   30.2333 C   0  0  0  0  0  0  0  0  0  0  0  0
    1.4515   -3.3629   31.0005 C   0  0  0  0  0  0  0  0  0  0  0  0
    2.2051   -2.4593   30.3048 N   0  0  0  0  0  0  0  0  0  0  0  0
    1.5764   -2.2942   29.1630 C   0  0  0  0  0  0  0  0  0  0  0  0
    0.4671   -3.0850   29.0751 N   0  0  0  0  0  0  0  0  0  0  0  0
   -1.8396  -10.1013   30.4159 C   0  0  0  0  0  0  0  0  0  0  0  0
   -2.7279   -9.5945   30.9649 O   0  0  0  0  0  0  0  0  0  0  0  0
   -2.5608  -11.5394   29.1647 C   0  0  0  0  0  0  0  0  0  0  0  0
   -4.2186  -12.1534   28.7711 O   0  0  0  0  0  0  0  0  0  0  0  0
   -5.3807  -12.1840   27.5215 C   0  0  0  0  0  0  0  0  0  0  0  0
   -6.7746  -13.2482   27.4140 C   0  0  0  0  0  0  0  0  0  0  0  0
   -7.5088  -13.1902   26.2123 C   0  0  0  0  0  0  0  0  0  0  0  0
   -6.8030  -11.9698   25.1717 S   0  0  0  0  0  0  0  0  0  0  0  0
   -5.5176  -11.5276   26.2533 N   0  0  0  0  0  0  0  0  0  0  0  0
    1.6324   -7.2512   32.6601 H   0  0  0  0  0  0  0  0  0  0  0  0
    0.3281   -6.3084   32.2671 H   0  0  0  0  0  0  0  0  0  0  0  0
    1.4329   -6.7490   30.9702 H   0  0  0  0  0  0  0  0  0  0  0  0
   -0.0597   -8.8077   32.6427 H   0  0  0  0  0  0  0  0  0  0  0  0
   -0.9977   -7.8735   31.9035 H   0  0  0  0  0  0  0  0  0  0  0  0
    0.8549   -8.2821   29.5781 H   0  0  0  0  0  0  0  0  0  0  0  0
   -0.4215   -9.0022   28.7541 H   0  0  0  0  0  0  0  0  0  0  0  0
   -1.6865   -7.2172   28.7292 H   0  0  0  0  0  0  0  0  0  0  0  0
   -1.8371   -7.2223   30.4433 H   0  0  0  0  0  0  0  0  0  0  0  0
    0.3023   -5.7192   29.0002 H   0  0  0  0  0  0  0  0  0  0  0  0
    1.7166   -3.6660   32.0056 H   0  0  0  0  0  0  0  0  0  0  0  0
    1.8695   -1.6174   28.3708 H   0  0  0  0  0  0  0  0  0  0  0  0
   -0.1968   -3.1106   28.3091 H   0  0  0  0  0  0  0  0  0  0  0  0
   -2.4313  -11.3340   28.1306 H   0  0  0  0  0  0  0  0  0  0  0  0
   -2.2160  -12.5083   29.4302 H   0  0  0  0  0  0  0  0  0  0  0  0
   -7.0203  -13.9064   28.2405 H   0  0  0  0  0  0  0  0  0  0  0  0
   -8.3936  -13.7357   25.9224 H   0  0  0  0  0  0  0  0  0  0  0  0
  1  2  1  0
  2  3  1  0
  3  4  1  0
  4  5  1  0
  5  6  1  0
  6  7  1  0
  7  8  2  0
  7  9  1  0
  9 10  2  0
 10 11  1  0
 11 12  2  0
 12 13  1  0
  3 14  1  0
 14 15  2  0
 14 16  1  0
 16 17  1  0
 17 18  1  0
 18 19  1  0
 19 20  2  0
 20 21  1  0
 21 22  1  0
 13  9  1  0
 22 18  2  0
  1 23  1  0
  1 24  1  0
  1 25  1  0
  2 26  1  0
  2 27  1  0
  4 28  1  0
  4 29  1  0
  5 30  1  0
  5 31  1  0
  6 32  1  0
 10 33  1  0
 12 34  1  0
 13 35  1  0
 16 36  1  0
 16 37  1  0
 19 38  1  0
 20 39  1  0
M  END
>  <Energy>  (1502) 
387.92659704982407

>  <compound_id>  (1502) 
17879

>  <target_id>  (1502) 
1

>  <reference_id>  (1502) 
186

>  <inspiration_ids>  (1502) 
[186, 101]

>  <energy_score>  (1502) 
369.7985461763459

>  <distance_score>  (1502) 
9.080337336902403

>  <path>  (1502) 
/opt/xchem-fragalysis-2/maxwin/BulkDock/SCRATCH/511014/C17879-P186/C17879-P186.minimised.mol

>  <scratch_subdir>  (1502) 
/opt/xchem-fragalysis-2/maxwin/BulkDock/SCRATCH/511014/C17879-P186

>  <fragmenstein_runtime>  (1502) 
20.270498991012573

>  <fragmenstein_outcome>  (1502) 
too moved

>  <fragmenstein_mode>  (1502) 
expansion

>  <fragmenstein_error>  (1502) 


$$$$
C17879-P101
     RDKit          3D

 39 40  0  0  0  0  0  0  0  0999 V2000
   -2.3568   -8.8283   33.3536 C   0  0  0  0  0  0  0  0  0  0  0  0
   -1.4681   -8.3547   32.2060 C   0  0  0  0  0  0  0  0  0  0  0  0
   -2.0334   -8.8257   30.8886 N   0  0  0  0  0  0  0  0  0  0  0  0
   -0.6765   -8.1233   30.3149 C   0  0  0  0  0  0  0  0  0  0  0  0
   -0.3957   -6.6328   30.0971 C   0  0  0  0  0  0  0  0  0  0  0  0
   -0.0419   -5.9259   31.2892 N   0  0  0  0  0  0  0  0  0  0  0  0
   -0.6873   -4.8599   31.9669 C   0  0  0  0  0  0  0  0  0  0  0  0
   -1.6540   -4.2220   31.6756 O   0  0  0  0  0  0  0  0  0  0  0  0
   -0.0386   -4.5847   33.2296 C   0  0  0  0  0  0  0  0  0  0  0  0
    1.2208   -4.8504   33.7317 C   0  0  0  0  0  0  0  0  0  0  0  0
    1.3836   -4.3130   34.9805 N   0  0  0  0  0  0  0  0  0  0  0  0
    0.2404   -3.7294   35.2483 C   0  0  0  0  0  0  0  0  0  0  0  0
   -0.6703   -3.9224   34.2558 N   0  0  0  0  0  0  0  0  0  0  0  0
   -2.1935  -10.4151   30.2357 C   0  0  0  0  0  0  0  0  0  0  0  0
   -1.7756  -11.3726   30.7263 O   0  0  0  0  0  0  0  0  0  0  0  0
   -3.3501  -10.6376   28.5374 C   0  0  0  0  0  0  0  0  0  0  0  0
   -4.1142  -11.8994   27.4443 O   0  0  0  0  0  0  0  0  0  0  0  0
   -5.5528  -11.6756   26.5926 C   0  0  0  0  0  0  0  0  0  0  0  0
   -5.7592  -11.1208   25.2005 C   0  0  0  0  0  0  0  0  0  0  0  0
   -6.9341  -11.5430   24.5954 C   0  0  0  0  0  0  0  0  0  0  0  0
   -7.6915  -12.7091   25.5650 S   0  0  0  0  0  0  0  0  0  0  0  0
   -6.5333  -12.6617   26.7789 N   0  0  0  0  0  0  0  0  0  0  0  0
   -3.4087   -8.8573   33.0592 H   0  0  0  0  0  0  0  0  0  0  0  0
   -2.2565   -8.1582   34.2149 H   0  0  0  0  0  0  0  0  0  0  0  0
   -2.0649   -9.8169   33.6917 H   0  0  0  0  0  0  0  0  0  0  0  0
   -1.7103   -7.2870   32.2245 H   0  0  0  0  0  0  0  0  0  0  0  0
   -0.4503   -8.4576   32.5339 H   0  0  0  0  0  0  0  0  0  0  0  0
    0.2213   -8.5169   30.7506 H   0  0  0  0  0  0  0  0  0  0  0  0
   -0.6377   -8.5490   29.3003 H   0  0  0  0  0  0  0  0  0  0  0  0
   -1.1614   -6.1682   29.5177 H   0  0  0  0  0  0  0  0  0  0  0  0
    0.4832   -6.5199   29.4604 H   0  0  0  0  0  0  0  0  0  0  0  0
    0.7092   -6.2860   31.8768 H   0  0  0  0  0  0  0  0  0  0  0  0
    2.0429   -5.3703   33.2564 H   0  0  0  0  0  0  0  0  0  0  0  0
    0.0189   -3.1532   36.1326 H   0  0  0  0  0  0  0  0  0  0  0  0
   -1.6451   -3.6332   34.2496 H   0  0  0  0  0  0  0  0  0  0  0  0
   -4.4246   -9.0309   28.3715 H   0  0  0  0  0  0  0  0  0  0  0  0
   -4.3254   -8.9698   28.3950 H   0  0  0  0  0  0  0  0  0  0  0  0
   -5.0564  -10.5231   24.6372 H   0  0  0  0  0  0  0  0  0  0  0  0
   -7.3226  -11.2772   23.6238 H   0  0  0  0  0  0  0  0  0  0  0  0
  1  2  1  0
  2  3  1  0
  3  4  1  0
  4  5  1  0
  5  6  1  0
  6  7  1  0
  7  8  2  0
  7  9  1  0
  9 10  2  0
 10 11  1  0
 11 12  2  0
 12 13  1  0
  3 14  1  0
 14 15  2  0
 14 16  1  0
 16 17  1  0
 17 18  1  0
 18 19  1  0
 19 20  2  0
 20 21  1  0
 21 22  1  0
 13  9  1  0
 22 18  2  0
  1 23  1  0
  1 24  1  0
  1 25  1  0
  2 26  1  0
  2 27  1  0
  4 28  1  0
  4 29  1  0
  5 30  1  0
  5 31  1  0
  6 32  1  0
 10 33  1  0
 12 34  1  0
 13 35  1  0
 16 36  1  0
 16 37  1  0
 19 38  1  0
 20 39  1  0
M  END
>  <Energy>  (1503) 
937.94365989200787

>  <compound_id>  (1503) 
17879

>  <target_id>  (1503) 
1

>  <reference_id>  (1503) 
101

>  <inspiration_ids>  (1503) 
[186, 101]

>  <energy_score>  (1503) 
919.8156090185303

>  <distance_score>  (1503) 
9.445646725299806

>  <path>  (1503) 
/opt/xchem-fragalysis-2/maxwin/BulkDock/SCRATCH/511014/C17879-P101/C17879-P101.minimised.mol

>  <scratch_subdir>  (1503) 
/opt/xchem-fragalysis-2/maxwin/BulkDock/SCRATCH/511014/C17879-P101

>  <fragmenstein_runtime>  (1503) 
22.80947232246399

>  <fragmenstein_outcome>  (1503) 
too moved

>  <fragmenstein_mode>  (1503) 
expansion

>  <fragmenstein_error>  (1503) 


$$$$
C17869-P186
     RDKit          3D

 40 42  0  0  0  0  0  0  0  0999 V2000
    0.1000   -2.9764   30.6304 O   0  0  0  0  0  0  0  0  0  0  0  0
   -0.3574   -3.8629   31.2827 C   0  0  0  0  0  0  0  0  0  0  0  0
   -0.7544   -5.1753   30.9155 N   0  0  0  0  0  0  0  0  0  0  0  0
   -0.6394   -5.8985   29.6386 C   0  0  0  0  0  0  0  0  0  0  0  0
   -1.4193   -7.4555   29.7657 C   0  0  0  0  0  0  0  0  0  0  0  0
   -0.8749   -8.9142   29.0934 N   0  0  0  0  0  0  0  0  0  0  0  0
   -1.6172  -10.3946   29.4271 C   0  0  0  0  0  0  0  0  0  0  0  0
   -1.2949  -11.1058   30.3115 O   0  0  0  0  0  0  0  0  0  0  0  0
   -3.3204  -10.9725   28.3818 C   0  0  0  0  0  0  0  0  0  0  0  0
   -4.3436  -12.1342   28.3916 O   0  0  0  0  0  0  0  0  0  0  0  0
   -5.5759  -12.1995   27.3924 C   0  0  0  0  0  0  0  0  0  0  0  0
   -6.8614  -13.2900   27.3385 C   0  0  0  0  0  0  0  0  0  0  0  0
   -7.6198  -13.2477   26.1584 C   0  0  0  0  0  0  0  0  0  0  0  0
   -6.9628  -12.0342   25.0929 S   0  0  0  0  0  0  0  0  0  0  0  0
   -5.6829  -11.5225   26.1419 N   0  0  0  0  0  0  0  0  0  0  0  0
    0.3920   -8.2372   29.7504 C   0  0  0  0  0  0  0  0  0  0  0  0
   -0.1831   -8.3449   31.4676 C   0  0  0  0  0  0  0  0  0  0  0  0
    0.8431   -7.4543   31.0506 C   0  0  0  0  0  0  0  0  0  0  0  0
   -0.4782   -3.6974   32.7190 C   0  0  0  0  0  0  0  0  0  0  0  0
   -0.3538   -4.5980   33.7652 C   0  0  0  0  0  0  0  0  0  0  0  0
   -0.4110   -3.9706   34.9781 N   0  0  0  0  0  0  0  0  0  0  0  0
   -0.5952   -2.7032   34.6953 C   0  0  0  0  0  0  0  0  0  0  0  0
   -0.6244   -2.4865   33.3486 N   0  0  0  0  0  0  0  0  0  0  0  0
   -1.0218   -5.6825   31.7474 H   0  0  0  0  0  0  0  0  0  0  0  0
   -1.0630   -5.2373   28.8719 H   0  0  0  0  0  0  0  0  0  0  0  0
    0.4160   -5.9159   29.3462 H   0  0  0  0  0  0  0  0  0  0  0  0
   -2.1083   -7.5598   30.6135 H   0  0  0  0  0  0  0  0  0  0  0  0
   -2.0996   -7.3036   28.9209 H   0  0  0  0  0  0  0  0  0  0  0  0
   -2.7228  -11.4860   27.5513 H   0  0  0  0  0  0  0  0  0  0  0  0
   -4.2116   -9.2120   28.0947 H   0  0  0  0  0  0  0  0  0  0  0  0
   -7.0705  -13.9385   28.1798 H   0  0  0  0  0  0  0  0  0  0  0  0
   -8.4948  -13.8185   25.8888 H   0  0  0  0  0  0  0  0  0  0  0  0
    1.1990   -8.8571   29.3747 H   0  0  0  0  0  0  0  0  0  0  0  0
   -0.3304   -9.3688   31.7126 H   0  0  0  0  0  0  0  0  0  0  0  0
   -0.9482   -7.8185   32.0324 H   0  0  0  0  0  0  0  0  0  0  0  0
    0.9090   -6.3802   31.1337 H   0  0  0  0  0  0  0  0  0  0  0  0
    1.6524   -7.4368   31.7643 H   0  0  0  0  0  0  0  0  0  0  0  0
   -0.1792   -5.6648   33.7229 H   0  0  0  0  0  0  0  0  0  0  0  0
   -0.7023   -1.9022   35.4147 H   0  0  0  0  0  0  0  0  0  0  0  0
   -0.7102   -1.5923   32.8830 H   0  0  0  0  0  0  0  0  0  0  0  0
  1  2  2  0
  2  3  1  0
  3  4  1  0
  4  5  1  0
  5  6  1  0
  6  7  1  0
  7  8  2  0
  7  9  1  0
  9 10  1  0
 10 11  1  0
 11 12  1  0
 12 13  2  0
 13 14  1  0
 14 15  1  0
  6 16  1  0
 16 17  1  0
 17 18  1  0
  2 19  1  0
 19 20  2  0
 20 21  1  0
 21 22  2  0
 22 23  1  0
 15 11  2  0
 18 16  1  0
 23 19  1  0
  3 24  1  0
  4 25  1  0
  4 26  1  0
  5 27  1  0
  5 28  1  0
  9 29  1  0
  9 30  1  0
 12 31  1  0
 13 32  1  0
 16 33  1  0
 17 34  1  0
 17 35  1  0
 18 36  1  0
 18 37  1  0
 20 38  1  0
 22 39  1  0
 23 40  1  0
M  END
>  <Energy>  (1504) 
701.54736141939588

>  <compound_id>  (1504) 
17869

>  <target_id>  (1504) 
1

>  <reference_id>  (1504) 
186

>  <inspiration_ids>  (1504) 
[186, 101]

>  <energy_score>  (1504) 
661.750619076241

>  <distance_score>  (1504) 
8.90024979280198

>  <path>  (1504) 
/opt/xchem-fragalysis-2/maxwin/BulkDock/SCRATCH/511014/C17869-P186/C17869-P186.minimised.mol

>  <scratch_subdir>  (1504) 
/opt/xchem-fragalysis-2/maxwin/BulkDock/SCRATCH/511014/C17869-P186

>  <fragmenstein_runtime>  (1504) 
18.208317756652832

>  <fragmenstein_outcome>  (1504) 
too moved

>  <fragmenstein_mode>  (1504) 
expansion

>  <fragmenstein_error>  (1504) 


$$$$
C17869-P101
     RDKit          3D

 40 42  0  0  0  0  0  0  0  0999 V2000
   -3.0629   -8.3507   34.9732 O   0  0  0  0  0  0  0  0  0  0  0  0
   -2.4448   -8.0362   34.0050 C   0  0  0  0  0  0  0  0  0  0  0  0
   -2.6447   -8.3591   32.6284 N   0  0  0  0  0  0  0  0  0  0  0  0
   -3.7156   -9.0866   31.9665 C   0  0  0  0  0  0  0  0  0  0  0  0
   -3.6391  -10.7090   31.5272 C   0  0  0  0  0  0  0  0  0  0  0  0
   -3.2420  -12.0047   30.2356 N   0  0  0  0  0  0  0  0  0  0  0  0
   -4.8154  -12.7043   29.4142 C   0  0  0  0  0  0  0  0  0  0  0  0
   -5.0931  -12.0462   28.4533 O   0  0  0  0  0  0  0  0  0  0  0  0
   -6.1377  -14.4526   29.4807 C   0  0  0  0  0  0  0  0  0  0  0  0
   -7.0504  -16.0695   28.5103 O   0  0  0  0  0  0  0  0  0  0  0  0
   -8.0117  -17.7426   28.6674 C   0  0  0  0  0  0  0  0  0  0  0  0
   -8.8935  -19.4058   28.4324 C   0  0  0  0  0  0  0  0  0  0  0  0
  -10.1963  -20.5304   29.2766 C   0  0  0  0  0  0  0  0  0  0  0  0
   -9.5500  -20.6240   27.7034 S   0  0  0  0  0  0  0  0  0  0  0  0
   -9.0773  -18.2830   27.6825 N   0  0  0  0  0  0  0  0  0  0  0  0
   -2.0239  -10.6395   29.7627 C   0  0  0  0  0  0  0  0  0  0  0  0
   -0.9898   -9.2218   29.7899 C   0  0  0  0  0  0  0  0  0  0  0  0
   -0.5406  -10.3819   29.0913 C   0  0  0  0  0  0  0  0  0  0  0  0
   -1.3519   -7.0884   34.1880 C   0  0  0  0  0  0  0  0  0  0  0  0
   -1.2124   -6.1978   35.2409 C   0  0  0  0  0  0  0  0  0  0  0  0
   -0.1200   -5.3824   35.1020 N   0  0  0  0  0  0  0  0  0  0  0  0
    0.4147   -5.7448   33.9692 C   0  0  0  0  0  0  0  0  0  0  0  0
   -0.2980   -6.7522   33.3791 N   0  0  0  0  0  0  0  0  0  0  0  0
   -1.9764   -7.8504   32.0722 H   0  0  0  0  0  0  0  0  0  0  0  0
   -4.5053   -9.0893   32.7308 H   0  0  0  0  0  0  0  0  0  0  0  0
   -4.0545   -8.3970   31.2303 H   0  0  0  0  0  0  0  0  0  0  0  0
   -4.6895  -10.9958   31.7374 H   0  0  0  0  0  0  0  0  0  0  0  0
   -2.7257  -10.5355   32.0812 H   0  0  0  0  0  0  0  0  0  0  0  0
   -6.0561  -14.8271   30.4844 H   0  0  0  0  0  0  0  0  0  0  0  0
   -6.9784  -13.8576   29.1327 H   0  0  0  0  0  0  0  0  0  0  0  0
   -9.6384  -20.1193   29.5853 H   0  0  0  0  0  0  0  0  0  0  0  0
  -10.8865  -21.3755   29.1215 H   0  0  0  0  0  0  0  0  0  0  0  0
   -1.6934  -10.8128   30.7808 H   0  0  0  0  0  0  0  0  0  0  0  0
   -0.5732   -8.6825   30.6226 H   0  0  0  0  0  0  0  0  0  0  0  0
   -0.9673   -8.3804   29.0653 H   0  0  0  0  0  0  0  0  0  0  0  0
    0.4125  -10.7334   29.4839 H   0  0  0  0  0  0  0  0  0  0  0  0
   -0.4097  -10.1586   28.0363 H   0  0  0  0  0  0  0  0  0  0  0  0
   -1.8722   -6.0927   36.0917 H   0  0  0  0  0  0  0  0  0  0  0  0
    1.3218   -5.3488   33.5325 H   0  0  0  0  0  0  0  0  0  0  0  0
    0.0580   -7.2557   32.5778 H   0  0  0  0  0  0  0  0  0  0  0  0
  1  2  2  0
  2  3  1  0
  3  4  1  0
  4  5  1  0
  5  6  1  0
  6  7  1  0
  7  8  2  0
  7  9  1  0
  9 10  1  0
 10 11  1  0
 11 12  1  0
 12 13  2  0
 13 14  1  0
 14 15  1  0
  6 16  1  0
 16 17  1  0
 17 18  1  0
  2 19  1  0
 19 20  2  0
 20 21  1  0
 21 22  2  0
 22 23  1  0
 15 11  2  0
 18 16  1  0
 23 19  1  0
  3 24  1  0
  4 25  1  0
  4 26  1  0
  5 27  1  0
  5 28  1  0
  9 29  1  0
  9 30  1  0
 12 31  1  0
 13 32  1  0
 16 33  1  0
 17 34  1  0
 17 35  1  0
 18 36  1  0
 18 37  1  0
 20 38  1  0
 22 39  1  0
 23 40  1  0
M  END
>  <Energy>  (1505) 
1715.2484402613043

>  <compound_id>  (1505) 
17869

>  <target_id>  (1505) 
1

>  <reference_id>  (1505) 
101

>  <inspiration_ids>  (1505) 
[186, 101]

>  <energy_score>  (1505) 
1675.451697918172

>  <distance_score>  (1505) 
6.88141679805403

>  <path>  (1505) 
/opt/xchem-fragalysis-2/maxwin/BulkDock/SCRATCH/511014/C17869-P101/C17869-P101.minimised.mol

>  <scratch_subdir>  (1505) 
/opt/xchem-fragalysis-2/maxwin/BulkDock/SCRATCH/511014/C17869-P101

>  <fragmenstein_runtime>  (1505) 
16.543389797210693

>  <fragmenstein_outcome>  (1505) 
too moved

>  <fragmenstein_mode>  (1505) 
expansion

>  <fragmenstein_error>  (1505) 


$$$$
C17897-P60
     RDKit          3D

 47 48  0  0  0  0  0  0  0  0999 V2000
   -8.8756  -26.2333   27.9612 C   0  0  0  0  0  0  0  0  0  0  0  0
   -7.8419  -25.1945   28.5945 C   0  0  0  0  0  0  0  0  0  0  0  0
   -6.2489  -24.0662   27.9421 O   0  0  0  0  0  0  0  0  0  0  0  0
   -4.9466  -23.0455   27.3652 C   0  0  0  0  0  0  0  0  0  0  0  0
   -3.8560  -23.6581   27.4610 O   0  0  0  0  0  0  0  0  0  0  0  0
   -4.6379  -21.3530   26.8182 C   0  0  0  0  0  0  0  0  0  0  0  0
   -3.7701  -21.3127   25.7533 C   0  0  0  0  0  0  0  0  0  0  0  0
   -2.8205  -20.1196   25.3636 C   0  0  0  0  0  0  0  0  0  0  0  0
   -2.4362  -18.7098   25.8947 C   0  0  0  0  0  0  0  0  0  0  0  0
   -1.0495  -17.6447   25.3824 N   0  0  0  0  0  0  0  0  0  0  0  0
   -1.1640  -15.6894   24.5100 C   0  0  0  0  0  0  0  0  0  0  0  0
    0.7067  -14.6818   24.1751 C   0  0  0  0  0  0  0  0  0  0  0  0
    2.7376  -14.9967   23.5532 N   0  0  0  0  0  0  0  0  0  0  0  0
    2.9215  -14.3376   22.4289 C   0  0  0  0  0  0  0  0  0  0  0  0
    2.8229  -14.6694   21.3090 O   0  0  0  0  0  0  0  0  0  0  0  0
    3.4416  -12.8181   23.1399 N   0  0  0  0  0  0  0  0  0  0  0  0
    4.1137  -11.3640   22.3899 C   0  0  0  0  0  0  0  0  0  0  0  0
    5.7181  -10.7333   23.0764 C   0  0  0  0  0  0  0  0  0  0  0  0
    6.8463  -10.4925   23.4562 C   0  0  0  0  0  0  0  0  0  0  0  0
    8.2544  -10.4937   23.9130 C   0  0  0  0  0  0  0  0  0  0  0  0
    8.6586   -9.2239   24.4159 O   0  0  0  0  0  0  0  0  0  0  0  0
    2.3416  -17.1261   24.0230 C   0  0  0  0  0  0  0  0  0  0  0  0
    0.6728  -18.4352   24.5632 C   0  0  0  0  0  0  0  0  0  0  0  0
   -3.4826  -18.6469   26.7714 N   0  0  0  0  0  0  0  0  0  0  0  0
   -4.4251  -19.9695   27.2583 C   0  0  0  0  0  0  0  0  0  0  0  0
   -9.5962  -25.7568   27.2868 H   0  0  0  0  0  0  0  0  0  0  0  0
   -8.3990  -27.0843   27.4906 H   0  0  0  0  0  0  0  0  0  0  0  0
   -9.5120  -26.6181   28.7709 H   0  0  0  0  0  0  0  0  0  0  0  0
   -8.6921  -24.4227   28.5150 H   0  0  0  0  0  0  0  0  0  0  0  0
   -7.7486  -25.3551   29.6684 H   0  0  0  0  0  0  0  0  0  0  0  0
   -3.6547  -22.2053   25.1307 H   0  0  0  0  0  0  0  0  0  0  0  0
   -2.4280  -20.4965   24.3986 H   0  0  0  0  0  0  0  0  0  0  0  0
   -1.9570  -15.4329   23.8268 H   0  0  0  0  0  0  0  0  0  0  0  0
   -1.7699  -15.0136   25.2257 H   0  0  0  0  0  0  0  0  0  0  0  0
    0.8751  -13.9125   24.9764 H   0  0  0  0  0  0  0  0  0  0  0  0
    0.2537  -14.0640   23.3906 H   0  0  0  0  0  0  0  0  0  0  0  0
    3.3246  -12.8495   24.1502 H   0  0  0  0  0  0  0  0  0  0  0  0
    4.2375  -12.1503   21.5030 H   0  0  0  0  0  0  0  0  0  0  0  0
    4.8665  -11.1364   21.5773 H   0  0  0  0  0  0  0  0  0  0  0  0
    8.3967  -11.2343   24.7066 H   0  0  0  0  0  0  0  0  0  0  0  0
    8.9216  -10.7618   23.0880 H   0  0  0  0  0  0  0  0  0  0  0  0
    8.0555   -9.0225   25.1542 H   0  0  0  0  0  0  0  0  0  0  0  0
    3.2417  -17.6093   23.6741 H   0  0  0  0  0  0  0  0  0  0  0  0
    1.9160  -16.0251   23.5688 H   0  0  0  0  0  0  0  0  0  0  0  0
    0.5892  -18.8163   25.5684 H   0  0  0  0  0  0  0  0  0  0  0  0
    0.3897  -19.1923   23.7854 H   0  0  0  0  0  0  0  0  0  0  0  0
   -4.9009  -19.6140   28.1772 H   0  0  0  0  0  0  0  0  0  0  0  0
  1  2  1  0
  2  3  1  0
  3  4  1  0
  4  5  2  0
  4  6  1  0
  6  7  2  0
  7  8  1  0
  8  9  2  0
  9 10  1  0
 10 11  1  0
 11 12  1  0
 12 13  1  0
 13 14  1  0
 14 15  2  0
 14 16  1  0
 16 17  1  0
 17 18  1  0
 18 19  3  0
 19 20  1  0
 20 21  1  0
 13 22  1  0
 22 23  1  0
  9 24  1  0
 24 25  2  0
 25  6  1  0
 23 10  1  0
  1 26  1  0
  1 27  1  0
  1 28  1  0
  2 29  1  0
  2 30  1  0
  7 31  1  0
  8 32  1  0
 11 33  1  0
 11 34  1  0
 12 35  1  0
 12 36  1  0
 16 37  1  0
 17 38  1  0
 17 39  1  0
 20 40  1  0
 20 41  1  0
 21 42  1  0
 22 43  1  0
 22 44  1  0
 23 45  1  0
 23 46  1  0
 25 47  1  0
M  END
>  <Energy>  (1506) 
1637.1241020755187

>  <compound_id>  (1506) 
17897

>  <target_id>  (1506) 
1

>  <reference_id>  (1506) 
60

>  <inspiration_ids>  (1506) 
[60, 123]

>  <energy_score>  (1506) 
1650.0015331284733

>  <distance_score>  (1506) 
11.132573344502825

>  <path>  (1506) 
/opt/xchem-fragalysis-2/maxwin/BulkDock/SCRATCH/511014/C17897-P60/C17897-P60.minimised.mol

>  <scratch_subdir>  (1506) 
/opt/xchem-fragalysis-2/maxwin/BulkDock/SCRATCH/511014/C17897-P60

>  <fragmenstein_runtime>  (1506) 
36.22641587257385

>  <fragmenstein_outcome>  (1506) 
too moved

>  <fragmenstein_mode>  (1506) 
expansion

>  <fragmenstein_error>  (1506) 


$$$$
C17897-P123
     RDKit          3D

 47 48  0  0  0  0  0  0  0  0999 V2000
   -9.5174  -24.5728   28.7893 C   0  0  0  0  0  0  0  0  0  0  0  0
   -8.9243  -23.3453   27.9723 C   0  0  0  0  0  0  0  0  0  0  0  0
   -7.1770  -23.1559   27.6917 O   0  0  0  0  0  0  0  0  0  0  0  0
   -6.8129  -21.9125   27.5591 C   0  0  0  0  0  0  0  0  0  0  0  0
   -7.7981  -21.2046   27.5189 O   0  0  0  0  0  0  0  0  0  0  0  0
   -5.2871  -20.8608   27.3318 C   0  0  0  0  0  0  0  0  0  0  0  0
   -5.6948  -19.4105   27.5366 C   0  0  0  0  0  0  0  0  0  0  0  0
   -4.9598  -18.1780   27.4592 C   0  0  0  0  0  0  0  0  0  0  0  0
   -3.6879  -18.2222   26.9950 C   0  0  0  0  0  0  0  0  0  0  0  0
   -2.7254  -17.1066   26.9449 N   0  0  0  0  0  0  0  0  0  0  0  0
   -2.1832  -17.2999   25.6614 C   0  0  0  0  0  0  0  0  0  0  0  0
   -1.9386  -15.6388   24.5513 C   0  0  0  0  0  0  0  0  0  0  0  0
   -1.1166  -14.1208   24.8875 N   0  0  0  0  0  0  0  0  0  0  0  0
    0.7441  -13.7673   25.3018 C   0  0  0  0  0  0  0  0  0  0  0  0
    1.2976  -13.7137   26.3301 O   0  0  0  0  0  0  0  0  0  0  0  0
    1.2597  -13.6901   23.9405 N   0  0  0  0  0  0  0  0  0  0  0  0
    2.8250  -13.4354   23.3950 C   0  0  0  0  0  0  0  0  0  0  0  0
    3.4401  -12.1459   22.7769 C   0  0  0  0  0  0  0  0  0  0  0  0
    4.3216  -11.3272   22.4438 C   0  0  0  0  0  0  0  0  0  0  0  0
    5.8455  -10.4915   22.4981 C   0  0  0  0  0  0  0  0  0  0  0  0
    6.8260  -10.9654   23.4361 O   0  0  0  0  0  0  0  0  0  0  0  0
   -2.2383  -14.2933   25.8939 C   0  0  0  0  0  0  0  0  0  0  0  0
   -2.1371  -15.4532   27.3916 C   0  0  0  0  0  0  0  0  0  0  0  0
   -3.2680  -19.5835   26.7047 N   0  0  0  0  0  0  0  0  0  0  0  0
   -4.0176  -20.8257   26.8826 C   0  0  0  0  0  0  0  0  0  0  0  0
  -10.5059  -24.2977   29.1761 H   0  0  0  0  0  0  0  0  0  0  0  0
   -9.7115  -25.4341   28.1380 H   0  0  0  0  0  0  0  0  0  0  0  0
   -8.8978  -24.9322   29.6098 H   0  0  0  0  0  0  0  0  0  0  0  0
   -9.3041  -23.6069   26.9816 H   0  0  0  0  0  0  0  0  0  0  0  0
   -9.3795  -22.4200   28.2961 H   0  0  0  0  0  0  0  0  0  0  0  0
   -6.7293  -19.2126   27.8481 H   0  0  0  0  0  0  0  0  0  0  0  0
   -5.4290  -17.2867   27.8382 H   0  0  0  0  0  0  0  0  0  0  0  0
   -2.5836  -18.1473   25.2712 H   0  0  0  0  0  0  0  0  0  0  0  0
   -1.2138  -17.7811   25.9499 H   0  0  0  0  0  0  0  0  0  0  0  0
   -2.9211  -15.4496   24.0878 H   0  0  0  0  0  0  0  0  0  0  0  0
   -1.3745  -15.5102   23.6814 H   0  0  0  0  0  0  0  0  0  0  0  0
    0.4441  -13.8825   23.2526 H   0  0  0  0  0  0  0  0  0  0  0  0
    3.0552  -14.3907   22.9232 H   0  0  0  0  0  0  0  0  0  0  0  0
    3.3664  -13.5377   24.3278 H   0  0  0  0  0  0  0  0  0  0  0  0
    6.3099  -10.6035   21.5127 H   0  0  0  0  0  0  0  0  0  0  0  0
    5.7116   -9.4477   22.7963 H   0  0  0  0  0  0  0  0  0  0  0  0
    6.3604  -11.3406   24.1978 H   0  0  0  0  0  0  0  0  0  0  0  0
   -2.7539  -13.3031   25.9729 H   0  0  0  0  0  0  0  0  0  0  0  0
   -2.9208  -14.9927   25.6606 H   0  0  0  0  0  0  0  0  0  0  0  0
   -1.2047  -15.4018   27.9196 H   0  0  0  0  0  0  0  0  0  0  0  0
   -2.7412  -15.1831   28.2365 H   0  0  0  0  0  0  0  0  0  0  0  0
   -3.4831  -21.7082   26.5560 H   0  0  0  0  0  0  0  0  0  0  0  0
  1  2  1  0
  2  3  1  0
  3  4  1  0
  4  5  2  0
  4  6  1  0
  6  7  2  0
  7  8  1  0
  8  9  2  0
  9 10  1  0
 10 11  1  0
 11 12  1  0
 12 13  1  0
 13 14  1  0
 14 15  2  0
 14 16  1  0
 16 17  1  0
 17 18  1  0
 18 19  3  0
 19 20  1  0
 20 21  1  0
 13 22  1  0
 22 23  1  0
  9 24  1  0
 24 25  2  0
 25  6  1  0
 23 10  1  0
  1 26  1  0
  1 27  1  0
  1 28  1  0
  2 29  1  0
  2 30  1  0
  7 31  1  0
  8 32  1  0
 11 33  1  0
 11 34  1  0
 12 35  1  0
 12 36  1  0
 16 37  1  0
 17 38  1  0
 17 39  1  0
 20 40  1  0
 20 41  1  0
 21 42  1  0
 22 43  1  0
 22 44  1  0
 23 45  1  0
 23 46  1  0
 25 47  1  0
M  END
>  <Energy>  (1507) 
618.41917496350084

>  <compound_id>  (1507) 
17897

>  <target_id>  (1507) 
1

>  <reference_id>  (1507) 
123

>  <inspiration_ids>  (1507) 
[60, 123]

>  <energy_score>  (1507) 
631.2966060164358

>  <distance_score>  (1507) 
12.09990903696976

>  <path>  (1507) 
/opt/xchem-fragalysis-2/maxwin/BulkDock/SCRATCH/511014/C17897-P123/C17897-P123.minimised.mol

>  <scratch_subdir>  (1507) 
/opt/xchem-fragalysis-2/maxwin/BulkDock/SCRATCH/511014/C17897-P123

>  <fragmenstein_runtime>  (1507) 
28.885473251342773

>  <fragmenstein_outcome>  (1507) 
too moved

>  <fragmenstein_mode>  (1507) 
expansion

>  <fragmenstein_error>  (1507) 


$$$$
C17898-P60
     RDKit          3D

 55 56  0  0  0  0  0  0  0  0999 V2000
   -8.4693  -15.1552   23.3907 C   0  0  0  0  0  0  0  0  0  0  0  0
   -8.8253  -13.6801   23.5863 C   0  0  0  0  0  0  0  0  0  0  0  0
   -7.8965  -12.8178   22.8941 O   0  0  0  0  0  0  0  0  0  0  0  0
   -8.0747  -11.4932   23.1845 C   0  0  0  0  0  0  0  0  0  0  0  0
   -8.9572  -11.0369   23.8970 O   0  0  0  0  0  0  0  0  0  0  0  0
   -7.0137  -10.6391   22.6109 C   0  0  0  0  0  0  0  0  0  0  0  0
   -6.5173   -9.5594   23.3317 C   0  0  0  0  0  0  0  0  0  0  0  0
   -5.4345   -8.7994   22.8206 C   0  0  0  0  0  0  0  0  0  0  0  0
   -4.8234   -9.1405   21.6134 C   0  0  0  0  0  0  0  0  0  0  0  0
   -3.7451   -8.4398   21.0873 N   0  0  0  0  0  0  0  0  0  0  0  0
   -3.3929   -7.0687   21.3605 C   0  0  0  0  0  0  0  0  0  0  0  0
   -1.8243   -6.9024   20.4470 C   0  0  0  0  0  0  0  0  0  0  0  0
   -0.7659   -6.2560   21.2474 N   0  0  0  0  0  0  0  0  0  0  0  0
    0.4781   -6.6210   21.7905 C   0  0  0  0  0  0  0  0  0  0  0  0
    0.5746   -7.1008   22.9121 O   0  0  0  0  0  0  0  0  0  0  0  0
    1.8086   -6.2706   20.9239 C   0  0  0  0  0  0  0  0  0  0  0  0
    1.6405   -4.9849   20.1148 C   0  0  0  0  0  0  0  0  0  0  0  0
    3.0371   -6.2272   21.7212 O   0  0  0  0  0  0  0  0  0  0  0  0
    4.1590   -5.4579   21.2690 C   0  0  0  0  0  0  0  0  0  0  0  0
    5.3463   -5.5749   22.2450 C   0  0  0  0  0  0  0  0  0  0  0  0
    6.3416   -4.4503   21.9859 C   0  0  0  0  0  0  0  0  0  0  0  0
    4.8942   -5.5339   23.7079 C   0  0  0  0  0  0  0  0  0  0  0  0
   -1.4087   -7.7335   20.3311 C   0  0  0  0  0  0  0  0  0  0  0  0
   -2.4370   -9.0557   20.9440 C   0  0  0  0  0  0  0  0  0  0  0  0
   -5.3757  -10.1444   20.8762 N   0  0  0  0  0  0  0  0  0  0  0  0
   -6.4456  -10.8611   21.3760 C   0  0  0  0  0  0  0  0  0  0  0  0
   -8.4880  -15.4112   22.3265 H   0  0  0  0  0  0  0  0  0  0  0  0
   -9.1717  -15.8001   23.9259 H   0  0  0  0  0  0  0  0  0  0  0  0
   -7.4551  -15.3556   23.7485 H   0  0  0  0  0  0  0  0  0  0  0  0
   -9.8330  -13.4971   23.1967 H   0  0  0  0  0  0  0  0  0  0  0  0
   -8.8037  -13.4554   24.6593 H   0  0  0  0  0  0  0  0  0  0  0  0
   -6.9464   -9.3005   24.2969 H   0  0  0  0  0  0  0  0  0  0  0  0
   -5.0601   -7.9686   23.4091 H   0  0  0  0  0  0  0  0  0  0  0  0
   -4.1212   -6.3649   20.9415 H   0  0  0  0  0  0  0  0  0  0  0  0
   -3.1821   -6.8621   22.4169 H   0  0  0  0  0  0  0  0  0  0  0  0
   -2.1842   -5.7950   20.4922 H   0  0  0  0  0  0  0  0  0  0  0  0
   -2.0742   -6.4827   19.2844 H   0  0  0  0  0  0  0  0  0  0  0  0
    1.9175   -7.1062   20.2237 H   0  0  0  0  0  0  0  0  0  0  0  0
    1.5868   -4.1135   20.7763 H   0  0  0  0  0  0  0  0  0  0  0  0
    0.7231   -5.0056   19.5179 H   0  0  0  0  0  0  0  0  0  0  0  0
    2.4672   -4.8298   19.4149 H   0  0  0  0  0  0  0  0  0  0  0  0
    4.4596   -5.8003   20.2725 H   0  0  0  0  0  0  0  0  0  0  0  0
    3.8611   -4.4056   21.2113 H   0  0  0  0  0  0  0  0  0  0  0  0
    5.8336   -6.5432   22.0806 H   0  0  0  0  0  0  0  0  0  0  0  0
    7.1633   -4.5432   22.6889 H   0  0  0  0  0  0  0  0  0  0  0  0
    5.8819   -3.4686   22.1452 H   0  0  0  0  0  0  0  0  0  0  0  0
    6.7205   -4.4743   20.9619 H   0  0  0  0  0  0  0  0  0  0  0  0
    5.7560   -5.5785   24.3827 H   0  0  0  0  0  0  0  0  0  0  0  0
    4.2505   -6.3856   23.9467 H   0  0  0  0  0  0  0  0  0  0  0  0
    4.3392   -4.6151   23.9262 H   0  0  0  0  0  0  0  0  0  0  0  0
   -0.9551   -7.9584   19.2351 H   0  0  0  0  0  0  0  0  0  0  0  0
   -0.4994   -8.3668   20.6874 H   0  0  0  0  0  0  0  0  0  0  0  0
   -2.4280   -9.8600   20.2019 H   0  0  0  0  0  0  0  0  0  0  0  0
   -2.0119   -9.3669   21.9004 H   0  0  0  0  0  0  0  0  0  0  0  0
   -6.7810  -11.6644   20.7290 H   0  0  0  0  0  0  0  0  0  0  0  0
  1  2  1  0
  2  3  1  0
  3  4  1  0
  4  5  2  0
  4  6  1  0
  6  7  2  0
  7  8  1  0
  8  9  2  0
  9 10  1  0
 10 11  1  0
 11 12  1  0
 12 13  1  0
 13 14  1  0
 14 15  2  0
 14 16  1  0
 16 17  1  0
 16 18  1  0
 18 19  1  0
 19 20  1  0
 20 21  1  0
 20 22  1  0
 13 23  1  0
 23 24  1  0
  9 25  1  0
 25 26  2  0
 26  6  1  0
 24 10  1  0
  1 27  1  0
  1 28  1  0
  1 29  1  0
  2 30  1  0
  2 31  1  0
  7 32  1  0
  8 33  1  0
 11 34  1  0
 11 35  1  0
 12 36  1  0
 12 37  1  0
 16 38  1  0
 17 39  1  0
 17 40  1  0
 17 41  1  0
 19 42  1  0
 19 43  1  0
 20 44  1  0
 21 45  1  0
 21 46  1  0
 21 47  1  0
 22 48  1  0
 22 49  1  0
 22 50  1  0
 23 51  1  0
 23 52  1  0
 24 53  1  0
 24 54  1  0
 26 55  1  0
M  END
>  <Energy>  (1508) 
663.52240811666945

>  <compound_id>  (1508) 
17898

>  <target_id>  (1508) 
1

>  <reference_id>  (1508) 
60

>  <inspiration_ids>  (1508) 
[60, 123]

>  <energy_score>  (1508) 
527.5386678621196

>  <distance_score>  (1508) 
14.545897009260292

>  <path>  (1508) 
/opt/xchem-fragalysis-2/maxwin/BulkDock/SCRATCH/511014/C17898-P60/C17898-P60.minimised.mol

>  <scratch_subdir>  (1508) 
/opt/xchem-fragalysis-2/maxwin/BulkDock/SCRATCH/511014/C17898-P60

>  <fragmenstein_runtime>  (1508) 
29.56666588783264

>  <fragmenstein_outcome>  (1508) 
too moved

>  <fragmenstein_mode>  (1508) 
expansion

>  <fragmenstein_error>  (1508) 


$$$$
C17898-P123
     RDKit          3D

 55 56  0  0  0  0  0  0  0  0999 V2000
   -7.8094  -18.2933   33.4959 C   0  0  0  0  0  0  0  0  0  0  0  0
   -7.5808  -17.6542   34.8568 C   0  0  0  0  0  0  0  0  0  0  0  0
   -6.4709  -16.7649   34.7251 O   0  0  0  0  0  0  0  0  0  0  0  0
   -5.2621  -17.3745   34.7156 C   0  0  0  0  0  0  0  0  0  0  0  0
   -4.9355  -18.3585   35.3547 O   0  0  0  0  0  0  0  0  0  0  0  0
   -4.4093  -16.7153   33.7146 C   0  0  0  0  0  0  0  0  0  0  0  0
   -4.8754  -15.7306   32.8535 C   0  0  0  0  0  0  0  0  0  0  0  0
   -4.0033  -15.1857   31.9136 C   0  0  0  0  0  0  0  0  0  0  0  0
   -2.6862  -15.6393   31.8135 C   0  0  0  0  0  0  0  0  0  0  0  0
   -1.8596  -15.1376   30.8368 N   0  0  0  0  0  0  0  0  0  0  0  0
   -2.3196  -14.8265   29.5133 C   0  0  0  0  0  0  0  0  0  0  0  0
   -0.9207  -15.2573   28.1970 C   0  0  0  0  0  0  0  0  0  0  0  0
    0.4629  -14.2293   27.1498 N   0  0  0  0  0  0  0  0  0  0  0  0
    2.4502  -13.8244   27.3015 C   0  0  0  0  0  0  0  0  0  0  0  0
    2.6619  -12.5407   28.1267 O   0  0  0  0  0  0  0  0  0  0  0  0
    4.0689  -14.3377   26.6698 C   0  0  0  0  0  0  0  0  0  0  0  0
    5.0428  -13.1874   27.8380 C   0  0  0  0  0  0  0  0  0  0  0  0
    5.3035  -13.6859   25.6098 O   0  0  0  0  0  0  0  0  0  0  0  0
    6.5473  -12.5263   25.8525 C   0  0  0  0  0  0  0  0  0  0  0  0
    7.6082  -11.8898   24.8422 C   0  0  0  0  0  0  0  0  0  0  0  0
    7.2146  -10.6218   24.0843 C   0  0  0  0  0  0  0  0  0  0  0  0
    8.8644  -11.5109   25.6665 C   0  0  0  0  0  0  0  0  0  0  0  0
   -0.1121  -15.5157   28.7656 C   0  0  0  0  0  0  0  0  0  0  0  0
   -0.4469  -15.2772   30.6645 C   0  0  0  0  0  0  0  0  0  0  0  0
   -2.2380  -16.5983   32.6573 N   0  0  0  0  0  0  0  0  0  0  0  0
   -3.1014  -17.1286   33.5663 C   0  0  0  0  0  0  0  0  0  0  0  0
   -7.0338  -19.0375   33.2908 H   0  0  0  0  0  0  0  0  0  0  0  0
   -7.7503  -17.5358   32.7070 H   0  0  0  0  0  0  0  0  0  0  0  0
   -8.7812  -18.7694   33.4360 H   0  0  0  0  0  0  0  0  0  0  0  0
   -8.4493  -17.0490   35.1345 H   0  0  0  0  0  0  0  0  0  0  0  0
   -7.4199  -18.3930   35.6479 H   0  0  0  0  0  0  0  0  0  0  0  0
   -5.8956  -15.3622   32.8994 H   0  0  0  0  0  0  0  0  0  0  0  0
   -4.3634  -14.3931   31.2658 H   0  0  0  0  0  0  0  0  0  0  0  0
   -3.1315  -15.5168   29.3231 H   0  0  0  0  0  0  0  0  0  0  0  0
   -2.7350  -13.8228   29.5854 H   0  0  0  0  0  0  0  0  0  0  0  0
   -1.6944  -14.8149   27.5092 H   0  0  0  0  0  0  0  0  0  0  0  0
   -1.4447  -16.1574   27.5675 H   0  0  0  0  0  0  0  0  0  0  0  0
    4.1932  -15.3809   26.8880 H   0  0  0  0  0  0  0  0  0  0  0  0
    4.8840  -12.1473   28.1077 H   0  0  0  0  0  0  0  0  0  0  0  0
    6.0423  -13.0287   27.5934 H   0  0  0  0  0  0  0  0  0  0  0  0
    5.1091  -13.5446   28.8389 H   0  0  0  0  0  0  0  0  0  0  0  0
    7.2503  -13.1491   26.4230 H   0  0  0  0  0  0  0  0  0  0  0  0
    6.1499  -11.6884   26.4198 H   0  0  0  0  0  0  0  0  0  0  0  0
    7.9628  -12.6234   24.1342 H   0  0  0  0  0  0  0  0  0  0  0  0
    7.0542   -9.7779   24.7626 H   0  0  0  0  0  0  0  0  0  0  0  0
    6.3201  -10.7561   23.4808 H   0  0  0  0  0  0  0  0  0  0  0  0
    8.0167  -10.3409   23.3987 H   0  0  0  0  0  0  0  0  0  0  0  0
    9.6363  -11.0705   25.0254 H   0  0  0  0  0  0  0  0  0  0  0  0
    9.3044  -12.3947   26.1414 H   0  0  0  0  0  0  0  0  0  0  0  0
    8.6190  -10.7877   26.4519 H   0  0  0  0  0  0  0  0  0  0  0  0
    0.6131  -16.4563   28.4190 H   0  0  0  0  0  0  0  0  0  0  0  0
    0.8828  -15.7827   29.4062 H   0  0  0  0  0  0  0  0  0  0  0  0
   -0.1193  -14.3875   31.1975 H   0  0  0  0  0  0  0  0  0  0  0  0
    0.0190  -16.1191   31.2025 H   0  0  0  0  0  0  0  0  0  0  0  0
   -2.6780  -17.9113   34.1906 H   0  0  0  0  0  0  0  0  0  0  0  0
  1  2  1  0
  2  3  1  0
  3  4  1  0
  4  5  2  0
  4  6  1  0
  6  7  2  0
  7  8  1  0
  8  9  2  0
  9 10  1  0
 10 11  1  0
 11 12  1  0
 12 13  1  0
 13 14  1  0
 14 15  2  0
 14 16  1  0
 16 17  1  0
 16 18  1  0
 18 19  1  0
 19 20  1  0
 20 21  1  0
 20 22  1  0
 13 23  1  0
 23 24  1  0
  9 25  1  0
 25 26  2  0
 26  6  1  0
 24 10  1  0
  1 27  1  0
  1 28  1  0
  1 29  1  0
  2 30  1  0
  2 31  1  0
  7 32  1  0
  8 33  1  0
 11 34  1  0
 11 35  1  0
 12 36  1  0
 12 37  1  0
 16 38  1  0
 17 39  1  0
 17 40  1  0
 17 41  1  0
 19 42  1  0
 19 43  1  0
 20 44  1  0
 21 45  1  0
 21 46  1  0
 21 47  1  0
 22 48  1  0
 22 49  1  0
 22 50  1  0
 23 51  1  0
 23 52  1  0
 24 53  1  0
 24 54  1  0
 26 55  1  0
M  END
>  <Energy>  (1509) 
1330.2767969727861

>  <compound_id>  (1509) 
17898

>  <target_id>  (1509) 
1

>  <reference_id>  (1509) 
123

>  <inspiration_ids>  (1509) 
[60, 123]

>  <energy_score>  (1509) 
1194.2930567182448

>  <distance_score>  (1509) 
13.064797445085938

>  <path>  (1509) 
/opt/xchem-fragalysis-2/maxwin/BulkDock/SCRATCH/511014/C17898-P123/C17898-P123.minimised.mol

>  <scratch_subdir>  (1509) 
/opt/xchem-fragalysis-2/maxwin/BulkDock/SCRATCH/511014/C17898-P123

>  <fragmenstein_runtime>  (1509) 
36.45017337799072

>  <fragmenstein_outcome>  (1509) 
too moved

>  <fragmenstein_mode>  (1509) 
expansion

>  <fragmenstein_error>  (1509) 


$$$$
C17901-P60
     RDKit          3D

 38 40  0  0  0  0  0  0  0  0999 V2000
   -5.2671  -19.5603   26.3053 C   0  0  0  0  0  0  0  0  0  0  0  0
   -4.9323  -19.2118   24.8649 C   0  0  0  0  0  0  0  0  0  0  0  0
   -5.0096  -17.7878   24.6596 O   0  0  0  0  0  0  0  0  0  0  0  0
   -5.9292  -17.3605   23.7587 C   0  0  0  0  0  0  0  0  0  0  0  0
   -6.7949  -18.0339   23.2238 O   0  0  0  0  0  0  0  0  0  0  0  0
   -5.6921  -15.9470   23.4016 C   0  0  0  0  0  0  0  0  0  0  0  0
   -6.0527  -15.4908   22.1314 C   0  0  0  0  0  0  0  0  0  0  0  0
   -5.7451  -14.1751   21.7319 C   0  0  0  0  0  0  0  0  0  0  0  0
   -5.1045  -13.3305   22.6321 C   0  0  0  0  0  0  0  0  0  0  0  0
   -4.7323  -11.8646   22.2858 C   0  0  0  0  0  0  0  0  0  0  0  0
   -4.5215  -11.1417   23.2304 O   0  0  0  0  0  0  0  0  0  0  0  0
   -4.7881  -11.5665   20.8791 N   0  0  0  0  0  0  0  0  0  0  0  0
   -3.3475  -11.7283   20.1906 C   0  0  0  0  0  0  0  0  0  0  0  0
   -3.2319  -10.2695   20.0208 C   0  0  0  0  0  0  0  0  0  0  0  0
   -2.5938   -9.6485   18.7933 C   0  0  0  0  0  0  0  0  0  0  0  0
   -2.0812   -8.5102   19.7173 C   0  0  0  0  0  0  0  0  0  0  0  0
   -2.3765   -9.4310   20.9367 C   0  0  0  0  0  0  0  0  0  0  0  0
   -4.7061  -10.2284   20.1293 C   0  0  0  0  0  0  0  0  0  0  0  0
   -4.7994  -13.7581   23.9036 N   0  0  0  0  0  0  0  0  0  0  0  0
   -5.0922  -15.0440   24.2579 C   0  0  0  0  0  0  0  0  0  0  0  0
   -4.4962  -19.1609   26.9734 H   0  0  0  0  0  0  0  0  0  0  0  0
   -5.3141  -20.6437   26.4432 H   0  0  0  0  0  0  0  0  0  0  0  0
   -6.2061  -19.1039   26.6209 H   0  0  0  0  0  0  0  0  0  0  0  0
   -5.5789  -19.7667   24.1783 H   0  0  0  0  0  0  0  0  0  0  0  0
   -3.9019  -19.5126   24.6474 H   0  0  0  0  0  0  0  0  0  0  0  0
   -6.5459  -16.1607   21.4283 H   0  0  0  0  0  0  0  0  0  0  0  0
   -6.0186  -13.8355   20.7382 H   0  0  0  0  0  0  0  0  0  0  0  0
   -2.6239  -12.2148   20.8474 H   0  0  0  0  0  0  0  0  0  0  0  0
   -3.4615  -12.3230   19.2757 H   0  0  0  0  0  0  0  0  0  0  0  0
   -3.2774   -9.3170   18.0053 H   0  0  0  0  0  0  0  0  0  0  0  0
   -1.8206  -10.2630   18.3278 H   0  0  0  0  0  0  0  0  0  0  0  0
   -2.7143   -7.6154   19.6909 H   0  0  0  0  0  0  0  0  0  0  0  0
   -1.0413   -8.2050   19.5847 H   0  0  0  0  0  0  0  0  0  0  0  0
   -2.8790   -8.9418   21.7755 H   0  0  0  0  0  0  0  0  0  0  0  0
   -1.4794   -9.9367   21.3090 H   0  0  0  0  0  0  0  0  0  0  0  0
   -5.2687  -10.2968   19.1897 H   0  0  0  0  0  0  0  0  0  0  0  0
   -5.1254   -9.4116   20.7263 H   0  0  0  0  0  0  0  0  0  0  0  0
   -4.7956  -15.3140   25.2680 H   0  0  0  0  0  0  0  0  0  0  0  0
  1  2  1  0
  2  3  1  0
  3  4  1  0
  4  5  2  0
  4  6  1  0
  6  7  2  0
  7  8  1  0
  8  9  2  0
  9 10  1  0
 10 11  2  0
 10 12  1  0
 12 13  1  0
 13 14  1  0
 14 15  1  0
 15 16  1  0
 16 17  1  0
 14 18  1  0
  9 19  1  0
 19 20  2  0
 20  6  1  0
 18 12  1  0
 17 14  1  0
  1 21  1  0
  1 22  1  0
  1 23  1  0
  2 24  1  0
  2 25  1  0
  7 26  1  0
  8 27  1  0
 13 28  1  0
 13 29  1  0
 15 30  1  0
 15 31  1  0
 16 32  1  0
 16 33  1  0
 17 34  1  0
 17 35  1  0
 18 36  1  0
 18 37  1  0
 20 38  1  0
M  END
>  <Energy>  (1510) 
116.53000460108781

>  <compound_id>  (1510) 
17901

>  <target_id>  (1510) 
1

>  <reference_id>  (1510) 
60

>  <inspiration_ids>  (1510) 
[60, 123]

>  <energy_score>  (1510) 
-4.751721764854892

>  <distance_score>  (1510) 
15.764694986981983

>  <path>  (1510) 
/opt/xchem-fragalysis-2/maxwin/BulkDock/SCRATCH/511014/C17901-P60/C17901-P60.minimised.mol

>  <scratch_subdir>  (1510) 
/opt/xchem-fragalysis-2/maxwin/BulkDock/SCRATCH/511014/C17901-P60

>  <fragmenstein_runtime>  (1510) 
29.572946548461914

>  <fragmenstein_outcome>  (1510) 
too moved

>  <fragmenstein_mode>  (1510) 
expansion

>  <fragmenstein_error>  (1510) 


$$$$
C17901-P123
     RDKit          3D

 38 40  0  0  0  0  0  0  0  0999 V2000
   -8.3132  -16.2344   26.4602 C   0  0  0  0  0  0  0  0  0  0  0  0
   -8.0631  -14.7385   26.5735 C   0  0  0  0  0  0  0  0  0  0  0  0
   -7.2153  -14.3102   25.4910 O   0  0  0  0  0  0  0  0  0  0  0  0
   -7.0765  -12.9620   25.4079 C   0  0  0  0  0  0  0  0  0  0  0  0
   -7.5945  -12.1427   26.1517 O   0  0  0  0  0  0  0  0  0  0  0  0
   -6.2208  -12.5603   24.2677 C   0  0  0  0  0  0  0  0  0  0  0  0
   -6.2108  -11.2234   23.8553 C   0  0  0  0  0  0  0  0  0  0  0  0
   -5.4097  -10.7962   22.7744 C   0  0  0  0  0  0  0  0  0  0  0  0
   -4.6160  -11.7301   22.1262 C   0  0  0  0  0  0  0  0  0  0  0  0
   -3.7300  -11.3808   20.8980 C   0  0  0  0  0  0  0  0  0  0  0  0
   -3.3883  -12.3435   20.2520 O   0  0  0  0  0  0  0  0  0  0  0  0
   -3.5256   -9.9644   20.6531 N   0  0  0  0  0  0  0  0  0  0  0  0
   -2.1698   -9.4510   21.3165 C   0  0  0  0  0  0  0  0  0  0  0  0
   -2.0855   -8.3626   20.3224 C   0  0  0  0  0  0  0  0  0  0  0  0
   -0.7522   -7.8165   19.8534 C   0  0  0  0  0  0  0  0  0  0  0  0
   -1.3865   -6.4103   19.8485 C   0  0  0  0  0  0  0  0  0  0  0  0
   -2.5692   -6.9784   20.6852 C   0  0  0  0  0  0  0  0  0  0  0  0
   -2.9062   -9.2270   19.4476 C   0  0  0  0  0  0  0  0  0  0  0  0
   -4.5979  -13.0471   22.5461 N   0  0  0  0  0  0  0  0  0  0  0  0
   -5.4003  -13.4348   23.5841 C   0  0  0  0  0  0  0  0  0  0  0  0
   -8.7978  -16.4544   25.5042 H   0  0  0  0  0  0  0  0  0  0  0  0
   -7.3633  -16.7775   26.4840 H   0  0  0  0  0  0  0  0  0  0  0  0
   -8.9494  -16.5877   27.2764 H   0  0  0  0  0  0  0  0  0  0  0  0
   -7.5659  -14.5179   27.5246 H   0  0  0  0  0  0  0  0  0  0  0  0
   -9.0225  -14.2100   26.5293 H   0  0  0  0  0  0  0  0  0  0  0  0
   -6.8419  -10.4940   24.3631 H   0  0  0  0  0  0  0  0  0  0  0  0
   -5.4422   -9.7614   22.4494 H   0  0  0  0  0  0  0  0  0  0  0  0
   -1.3893  -10.2164   21.2715 H   0  0  0  0  0  0  0  0  0  0  0  0
   -2.3485   -9.1295   22.3455 H   0  0  0  0  0  0  0  0  0  0  0  0
   -0.4032   -8.1290   18.8666 H   0  0  0  0  0  0  0  0  0  0  0  0
    0.0570   -7.9241   20.5828 H   0  0  0  0  0  0  0  0  0  0  0  0
   -0.7997   -5.6277   20.3367 H   0  0  0  0  0  0  0  0  0  0  0  0
   -1.6847   -6.0674   18.8515 H   0  0  0  0  0  0  0  0  0  0  0  0
   -2.4950   -6.7353   21.7513 H   0  0  0  0  0  0  0  0  0  0  0  0
   -3.5633   -6.6943   20.3285 H   0  0  0  0  0  0  0  0  0  0  0  0
   -3.6801   -8.7245   18.8587 H   0  0  0  0  0  0  0  0  0  0  0  0
   -2.3691   -9.9289   18.7985 H   0  0  0  0  0  0  0  0  0  0  0  0
   -5.3345  -14.4896   23.8363 H   0  0  0  0  0  0  0  0  0  0  0  0
  1  2  1  0
  2  3  1  0
  3  4  1  0
  4  5  2  0
  4  6  1  0
  6  7  2  0
  7  8  1  0
  8  9  2  0
  9 10  1  0
 10 11  2  0
 10 12  1  0
 12 13  1  0
 13 14  1  0
 14 15  1  0
 15 16  1  0
 16 17  1  0
 14 18  1  0
  9 19  1  0
 19 20  2  0
 20  6  1  0
 18 12  1  0
 17 14  1  0
  1 21  1  0
  1 22  1  0
  1 23  1  0
  2 24  1  0
  2 25  1  0
  7 26  1  0
  8 27  1  0
 13 28  1  0
 13 29  1  0
 15 30  1  0
 15 31  1  0
 16 32  1  0
 16 33  1  0
 17 34  1  0
 17 35  1  0
 18 36  1  0
 18 37  1  0
 20 38  1  0
M  END
>  <Energy>  (1511) 
114.67816110231293

>  <compound_id>  (1511) 
17901

>  <target_id>  (1511) 
1

>  <reference_id>  (1511) 
123

>  <inspiration_ids>  (1511) 
[60, 123]

>  <energy_score>  (1511) 
-6.603565263629093

>  <distance_score>  (1511) 
15.511929208226835

>  <path>  (1511) 
/opt/xchem-fragalysis-2/maxwin/BulkDock/SCRATCH/511014/C17901-P123/C17901-P123.minimised.mol

>  <scratch_subdir>  (1511) 
/opt/xchem-fragalysis-2/maxwin/BulkDock/SCRATCH/511014/C17901-P123

>  <fragmenstein_runtime>  (1511) 
26.73077392578125

>  <fragmenstein_outcome>  (1511) 
too moved

>  <fragmenstein_mode>  (1511) 
expansion

>  <fragmenstein_error>  (1511) 


$$$$
C17906-P60
     RDKit          3D

 38 40  0  0  0  0  0  0  0  0999 V2000
   -8.8238  -18.0024   22.4297 C   0  0  0  0  0  0  0  0  0  0  0  0
   -7.3091  -17.8809   22.3665 C   0  0  0  0  0  0  0  0  0  0  0  0
   -6.8819  -16.5064   22.3634 O   0  0  0  0  0  0  0  0  0  0  0  0
   -6.8043  -15.9073   23.5779 C   0  0  0  0  0  0  0  0  0  0  0  0
   -7.1417  -16.3891   24.6458 O   0  0  0  0  0  0  0  0  0  0  0  0
   -6.2709  -14.5360   23.4416 C   0  0  0  0  0  0  0  0  0  0  0  0
   -5.5068  -14.1068   22.3536 C   0  0  0  0  0  0  0  0  0  0  0  0
   -5.0494  -12.7731   22.2783 C   0  0  0  0  0  0  0  0  0  0  0  0
   -5.3799  -11.8933   23.3012 C   0  0  0  0  0  0  0  0  0  0  0  0
   -4.9645  -10.3942   23.3247 C   0  0  0  0  0  0  0  0  0  0  0  0
   -5.4913   -9.7674   24.2076 O   0  0  0  0  0  0  0  0  0  0  0  0
   -3.9497   -9.9957   22.3629 N   0  0  0  0  0  0  0  0  0  0  0  0
   -3.1275   -8.6607   22.2372 C   0  0  0  0  0  0  0  0  0  0  0  0
   -1.8760   -8.6175   21.2757 C   0  0  0  0  0  0  0  0  0  0  0  0
   -2.4553   -8.7822   19.9463 C   0  0  0  0  0  0  0  0  0  0  0  0
   -1.9722   -8.4599   18.7214 N   0  0  0  0  0  0  0  0  0  0  0  0
   -2.9452   -8.7728   17.8908 C   0  0  0  0  0  0  0  0  0  0  0  0
   -4.0549   -9.2389   18.5524 N   0  0  0  0  0  0  0  0  0  0  0  0
   -3.7469   -9.2194   19.8811 C   0  0  0  0  0  0  0  0  0  0  0  0
   -4.6274   -9.4423   21.0703 C   0  0  0  0  0  0  0  0  0  0  0  0
   -6.1035  -12.3260   24.3921 N   0  0  0  0  0  0  0  0  0  0  0  0
   -6.5233  -13.6205   24.4458 C   0  0  0  0  0  0  0  0  0  0  0  0
   -9.2793  -17.4369   21.6096 H   0  0  0  0  0  0  0  0  0  0  0  0
   -9.1414  -19.0434   22.3463 H   0  0  0  0  0  0  0  0  0  0  0  0
   -9.2157  -17.5737   23.3552 H   0  0  0  0  0  0  0  0  0  0  0  0
   -6.9463  -18.3259   21.4342 H   0  0  0  0  0  0  0  0  0  0  0  0
   -6.8298  -18.4209   23.1872 H   0  0  0  0  0  0  0  0  0  0  0  0
   -5.2599  -14.7952   21.5476 H   0  0  0  0  0  0  0  0  0  0  0  0
   -4.4583  -12.4533   21.4275 H   0  0  0  0  0  0  0  0  0  0  0  0
   -3.7468   -7.7460   22.2130 H   0  0  0  0  0  0  0  0  0  0  0  0
   -2.7057   -8.5805   23.2483 H   0  0  0  0  0  0  0  0  0  0  0  0
   -1.1885   -9.4353   21.5108 H   0  0  0  0  0  0  0  0  0  0  0  0
   -1.3537   -7.6624   21.3795 H   0  0  0  0  0  0  0  0  0  0  0  0
   -2.9126   -8.6694   16.8142 H   0  0  0  0  0  0  0  0  0  0  0  0
   -4.9353   -9.4878   18.1221 H   0  0  0  0  0  0  0  0  0  0  0  0
   -5.2902   -8.5910   21.2945 H   0  0  0  0  0  0  0  0  0  0  0  0
   -5.3355  -10.2332   20.7822 H   0  0  0  0  0  0  0  0  0  0  0  0
   -7.0903  -13.8824   25.3358 H   0  0  0  0  0  0  0  0  0  0  0  0
  1  2  1  0
  2  3  1  0
  3  4  1  0
  4  5  2  0
  4  6  1  0
  6  7  2  0
  7  8  1  0
  8  9  2  0
  9 10  1  0
 10 11  2  0
 10 12  1  0
 12 13  1  0
 13 14  1  0
 14 15  1  0
 15 16  1  0
 16 17  2  0
 17 18  1  0
 18 19  1  0
 19 20  1  0
  9 21  1  0
 21 22  2  0
 22  6  1  0
 20 12  1  0
 19 15  2  0
  1 23  1  0
  1 24  1  0
  1 25  1  0
  2 26  1  0
  2 27  1  0
  7 28  1  0
  8 29  1  0
 13 30  1  0
 13 31  1  0
 14 32  1  0
 14 33  1  0
 17 34  1  0
 18 35  1  0
 20 36  1  0
 20 37  1  0
 22 38  1  0
M  END
>  <Energy>  (1512) 
143.84475806188723

>  <compound_id>  (1512) 
17906

>  <target_id>  (1512) 
1

>  <reference_id>  (1512) 
60

>  <inspiration_ids>  (1512) 
[60, 123]

>  <energy_score>  (1512) 
39.55382635086585

>  <distance_score>  (1512) 
15.586882558544593

>  <path>  (1512) 
/opt/xchem-fragalysis-2/maxwin/BulkDock/SCRATCH/511014/C17906-P60/C17906-P60.minimised.mol

>  <scratch_subdir>  (1512) 
/opt/xchem-fragalysis-2/maxwin/BulkDock/SCRATCH/511014/C17906-P60

>  <fragmenstein_runtime>  (1512) 
24.179015636444092

>  <fragmenstein_outcome>  (1512) 
too moved

>  <fragmenstein_mode>  (1512) 
expansion

>  <fragmenstein_error>  (1512) 


$$$$
C17906-P123
     RDKit          3D

 38 40  0  0  0  0  0  0  0  0999 V2000
   -4.1913  -22.4851   26.6405 C   0  0  0  0  0  0  0  0  0  0  0  0
   -2.9772  -22.0943   27.4661 C   0  0  0  0  0  0  0  0  0  0  0  0
   -3.0013  -20.6786   27.7168 O   0  0  0  0  0  0  0  0  0  0  0  0
   -2.9882  -20.2834   29.0139 C   0  0  0  0  0  0  0  0  0  0  0  0
   -3.0230  -20.9974   30.0007 O   0  0  0  0  0  0  0  0  0  0  0  0
   -2.8854  -18.8134   29.0791 C   0  0  0  0  0  0  0  0  0  0  0  0
   -2.0871  -18.0899   28.1891 C   0  0  0  0  0  0  0  0  0  0  0  0
   -1.9361  -16.7033   28.3414 C   0  0  0  0  0  0  0  0  0  0  0  0
   -2.6101  -16.0741   29.3786 C   0  0  0  0  0  0  0  0  0  0  0  0
   -2.6010  -14.5521   29.5281 C   0  0  0  0  0  0  0  0  0  0  0  0
   -3.6220  -14.1008   29.9798 O   0  0  0  0  0  0  0  0  0  0  0  0
   -1.4231  -13.8836   29.0230 N   0  0  0  0  0  0  0  0  0  0  0  0
   -1.1412  -12.3817   28.7919 C   0  0  0  0  0  0  0  0  0  0  0  0
    0.1413  -11.9011   28.0181 C   0  0  0  0  0  0  0  0  0  0  0  0
    1.2533  -12.2594   28.8839 C   0  0  0  0  0  0  0  0  0  0  0  0
    2.4910  -11.7154   29.0416 N   0  0  0  0  0  0  0  0  0  0  0  0
    3.0223  -12.4123   30.0300 C   0  0  0  0  0  0  0  0  0  0  0  0
    2.1367  -13.3234   30.5540 N   0  0  0  0  0  0  0  0  0  0  0  0
    0.9773  -13.1708   29.8546 C   0  0  0  0  0  0  0  0  0  0  0  0
   -0.3962  -13.6776   30.1728 C   0  0  0  0  0  0  0  0  0  0  0  0
   -3.4097  -16.7716   30.2556 N   0  0  0  0  0  0  0  0  0  0  0  0
   -3.5257  -18.1193   30.0921 C   0  0  0  0  0  0  0  0  0  0  0  0
   -5.1098  -22.3525   27.2138 H   0  0  0  0  0  0  0  0  0  0  0  0
   -4.1152  -23.5266   26.3225 H   0  0  0  0  0  0  0  0  0  0  0  0
   -4.2623  -21.8536   25.7497 H   0  0  0  0  0  0  0  0  0  0  0  0
   -2.0662  -22.3011   26.8949 H   0  0  0  0  0  0  0  0  0  0  0  0
   -2.9350  -22.6911   28.3831 H   0  0  0  0  0  0  0  0  0  0  0  0
   -1.5599  -18.5948   27.3826 H   0  0  0  0  0  0  0  0  0  0  0  0
   -1.3316  -16.1350   27.6434 H   0  0  0  0  0  0  0  0  0  0  0  0
   -1.4044  -11.7445   29.6561 H   0  0  0  0  0  0  0  0  0  0  0  0
   -1.9631  -12.1300   28.1020 H   0  0  0  0  0  0  0  0  0  0  0  0
    0.2132  -12.4103   27.0558 H   0  0  0  0  0  0  0  0  0  0  0  0
    0.0822  -10.8206   27.8812 H   0  0  0  0  0  0  0  0  0  0  0  0
    4.0247  -12.2991   30.4215 H   0  0  0  0  0  0  0  0  0  0  0  0
    2.3057  -13.9262   31.3491 H   0  0  0  0  0  0  0  0  0  0  0  0
   -0.8582  -13.1427   31.0194 H   0  0  0  0  0  0  0  0  0  0  0  0
   -0.2545  -14.6947   30.5703 H   0  0  0  0  0  0  0  0  0  0  0  0
   -4.1568  -18.6250   30.8196 H   0  0  0  0  0  0  0  0  0  0  0  0
  1  2  1  0
  2  3  1  0
  3  4  1  0
  4  5  2  0
  4  6  1  0
  6  7  2  0
  7  8  1  0
  8  9  2  0
  9 10  1  0
 10 11  2  0
 10 12  1  0
 12 13  1  0
 13 14  1  0
 14 15  1  0
 15 16  1  0
 16 17  2  0
 17 18  1  0
 18 19  1  0
 19 20  1  0
  9 21  1  0
 21 22  2  0
 22  6  1  0
 20 12  1  0
 19 15  2  0
  1 23  1  0
  1 24  1  0
  1 25  1  0
  2 26  1  0
  2 27  1  0
  7 28  1  0
  8 29  1  0
 13 30  1  0
 13 31  1  0
 14 32  1  0
 14 33  1  0
 17 34  1  0
 18 35  1  0
 20 36  1  0
 20 37  1  0
 22 38  1  0
M  END
>  <Energy>  (1513) 
144.31482372765061

>  <compound_id>  (1513) 
17906

>  <target_id>  (1513) 
1

>  <reference_id>  (1513) 
123

>  <inspiration_ids>  (1513) 
[60, 123]

>  <energy_score>  (1513) 
40.023892016631976

>  <distance_score>  (1513) 
16.176526105952814

>  <path>  (1513) 
/opt/xchem-fragalysis-2/maxwin/BulkDock/SCRATCH/511014/C17906-P123/C17906-P123.minimised.mol

>  <scratch_subdir>  (1513) 
/opt/xchem-fragalysis-2/maxwin/BulkDock/SCRATCH/511014/C17906-P123

>  <fragmenstein_runtime>  (1513) 
32.282952070236206

>  <fragmenstein_outcome>  (1513) 
too moved

>  <fragmenstein_mode>  (1513) 
expansion

>  <fragmenstein_error>  (1513) 


$$$$
C17907-P60
     RDKit          3D

 40 42  0  0  0  0  0  0  0  0999 V2000
   -8.9408  -16.9744   23.1923 C   0  0  0  0  0  0  0  0  0  0  0  0
   -8.9731  -15.8882   22.1219 C   0  0  0  0  0  0  0  0  0  0  0  0
   -8.2708  -14.7239   22.5917 O   0  0  0  0  0  0  0  0  0  0  0  0
   -8.2359  -13.6861   21.6969 C   0  0  0  0  0  0  0  0  0  0  0  0
   -8.7526  -13.7141   20.5888 O   0  0  0  0  0  0  0  0  0  0  0  0
   -7.4556  -12.5150   22.2671 C   0  0  0  0  0  0  0  0  0  0  0  0
   -8.2277  -11.8600   23.4147 C   0  0  0  0  0  0  0  0  0  0  0  0
   -7.9917  -10.3483   23.4700 C   0  0  0  0  0  0  0  0  0  0  0  0
   -6.5769   -9.9610   23.0312 C   0  0  0  0  0  0  0  0  0  0  0  0
   -6.3520  -10.3155   21.6278 N   0  0  0  0  0  0  0  0  0  0  0  0
   -5.2591   -9.8047   20.8920 C   0  0  0  0  0  0  0  0  0  0  0  0
   -4.9636  -10.1233   19.6384 N   0  0  0  0  0  0  0  0  0  0  0  0
   -3.8148   -9.5036   19.1194 N   0  0  0  0  0  0  0  0  0  0  0  0
   -3.1953   -8.7039   19.9763 C   0  0  0  0  0  0  0  0  0  0  0  0
   -1.9171   -7.9156   19.6872 C   0  0  0  0  0  0  0  0  0  0  0  0
   -1.3770   -7.8513   18.3918 C   0  0  0  0  0  0  0  0  0  0  0  0
   -0.1851   -7.1472   18.1447 C   0  0  0  0  0  0  0  0  0  0  0  0
    0.4626   -6.5218   19.1978 C   0  0  0  0  0  0  0  0  0  0  0  0
   -0.1200   -6.6249   20.4510 C   0  0  0  0  0  0  0  0  0  0  0  0
   -1.2951   -7.2701   20.7148 N   0  0  0  0  0  0  0  0  0  0  0  0
   -4.0667   -8.6398   21.4810 S   0  0  0  0  0  0  0  0  0  0  0  0
   -7.0573  -11.5316   21.1423 C   0  0  0  0  0  0  0  0  0  0  0  0
   -7.9056  -17.2394   23.4298 H   0  0  0  0  0  0  0  0  0  0  0  0
   -9.4696  -17.8686   22.8523 H   0  0  0  0  0  0  0  0  0  0  0  0
   -9.4005  -16.6103   24.1165 H   0  0  0  0  0  0  0  0  0  0  0  0
  -10.0136  -15.6219   21.9049 H   0  0  0  0  0  0  0  0  0  0  0  0
   -8.4913  -16.2607   21.2109 H   0  0  0  0  0  0  0  0  0  0  0  0
   -6.5443  -12.9437   22.6886 H   0  0  0  0  0  0  0  0  0  0  0  0
   -7.9019  -12.3111   24.3610 H   0  0  0  0  0  0  0  0  0  0  0  0
   -9.3051  -12.0527   23.3430 H   0  0  0  0  0  0  0  0  0  0  0  0
   -8.7208   -9.8485   22.8192 H   0  0  0  0  0  0  0  0  0  0  0  0
   -8.1800   -9.9886   24.4881 H   0  0  0  0  0  0  0  0  0  0  0  0
   -6.4714   -8.8785   23.1668 H   0  0  0  0  0  0  0  0  0  0  0  0
   -5.8465  -10.4504   23.6762 H   0  0  0  0  0  0  0  0  0  0  0  0
   -1.8725   -8.3733   17.5778 H   0  0  0  0  0  0  0  0  0  0  0  0
    0.2303   -7.1203   17.1425 H   0  0  0  0  0  0  0  0  0  0  0  0
    1.3951   -5.9911   19.0563 H   0  0  0  0  0  0  0  0  0  0  0  0
    0.3515   -6.1782   21.3224 H   0  0  0  0  0  0  0  0  0  0  0  0
   -6.4417  -12.0693   20.4098 H   0  0  0  0  0  0  0  0  0  0  0  0
   -7.9536  -11.1973   20.6039 H   0  0  0  0  0  0  0  0  0  0  0  0
  1  2  1  0
  2  3  1  0
  3  4  1  0
  4  5  2  0
  4  6  1  0
  6  7  1  0
  7  8  1  0
  8  9  1  0
  9 10  1  0
 10 11  1  0
 11 12  2  0
 12 13  1  0
 13 14  2  0
 14 15  1  0
 15 16  2  0
 16 17  1  0
 17 18  2  0
 18 19  1  0
 19 20  2  0
 14 21  1  0
 10 22  1  0
 22  6  1  0
 21 11  1  0
 20 15  1  0
  1 23  1  0
  1 24  1  0
  1 25  1  0
  2 26  1  0
  2 27  1  0
  6 28  1  0
  7 29  1  0
  7 30  1  0
  8 31  1  0
  8 32  1  0
  9 33  1  0
  9 34  1  0
 16 35  1  0
 17 36  1  0
 18 37  1  0
 19 38  1  0
 22 39  1  0
 22 40  1  0
M  END
>  <Energy>  (1514) 
26.59518569668991

>  <compound_id>  (1514) 
17907

>  <target_id>  (1514) 
1

>  <reference_id>  (1514) 
60

>  <inspiration_ids>  (1514) 
[60, 123]

>  <energy_score>  (1514) 
-119.83789215839158

>  <distance_score>  (1514) 
14.86079209854213

>  <path>  (1514) 
/opt/xchem-fragalysis-2/maxwin/BulkDock/SCRATCH/511014/C17907-P60/C17907-P60.minimised.mol

>  <scratch_subdir>  (1514) 
/opt/xchem-fragalysis-2/maxwin/BulkDock/SCRATCH/511014/C17907-P60

>  <fragmenstein_runtime>  (1514) 
20.89330506324768

>  <fragmenstein_outcome>  (1514) 
too moved

>  <fragmenstein_mode>  (1514) 
expansion

>  <fragmenstein_error>  (1514) 


$$$$
C17907-P123
     RDKit          3D

 40 42  0  0  0  0  0  0  0  0999 V2000
   -9.3254  -15.3992   23.6026 C   0  0  0  0  0  0  0  0  0  0  0  0
   -8.6983  -14.0350   23.2748 C   0  0  0  0  0  0  0  0  0  0  0  0
   -7.3043  -14.0526   23.6358 O   0  0  0  0  0  0  0  0  0  0  0  0
   -6.4379  -14.4244   22.6632 C   0  0  0  0  0  0  0  0  0  0  0  0
   -6.6177  -14.1849   21.4707 O   0  0  0  0  0  0  0  0  0  0  0  0
   -5.1967  -15.3160   23.1576 C   0  0  0  0  0  0  0  0  0  0  0  0
   -5.9811  -16.1650   24.4474 C   0  0  0  0  0  0  0  0  0  0  0  0
   -4.6624  -16.1795   25.4053 C   0  0  0  0  0  0  0  0  0  0  0  0
   -2.6609  -15.8254   25.3075 C   0  0  0  0  0  0  0  0  0  0  0  0
   -1.3733  -15.0151   24.1376 N   0  0  0  0  0  0  0  0  0  0  0  0
    0.3352  -14.1808   23.6895 C   0  0  0  0  0  0  0  0  0  0  0  0
    1.6453  -13.2036   24.1203 N   0  0  0  0  0  0  0  0  0  0  0  0
    2.5099  -12.1333   23.2004 N   0  0  0  0  0  0  0  0  0  0  0  0
    3.3137  -12.7427   22.3024 C   0  0  0  0  0  0  0  0  0  0  0  0
    4.6024  -12.4497   20.9516 C   0  0  0  0  0  0  0  0  0  0  0  0
    4.8808  -12.9882   19.6735 C   0  0  0  0  0  0  0  0  0  0  0  0
    6.0570  -12.7263   18.8866 C   0  0  0  0  0  0  0  0  0  0  0  0
    7.0181  -11.8368   19.3040 C   0  0  0  0  0  0  0  0  0  0  0  0
    6.7158  -11.1858   20.4587 C   0  0  0  0  0  0  0  0  0  0  0  0
    5.5623  -11.4084   21.1846 N   0  0  0  0  0  0  0  0  0  0  0  0
    2.6272  -14.5873   23.1247 S   0  0  0  0  0  0  0  0  0  0  0  0
   -3.1423  -15.1755   23.3450 C   0  0  0  0  0  0  0  0  0  0  0  0
   -8.8296  -16.1972   23.0411 H   0  0  0  0  0  0  0  0  0  0  0  0
  -10.3904  -15.4003   23.3547 H   0  0  0  0  0  0  0  0  0  0  0  0
   -9.2119  -15.6289   24.6668 H   0  0  0  0  0  0  0  0  0  0  0  0
   -9.1789  -13.2546   23.8731 H   0  0  0  0  0  0  0  0  0  0  0  0
   -8.8460  -13.7821   22.2195 H   0  0  0  0  0  0  0  0  0  0  0  0
   -5.2428  -16.0598   22.3171 H   0  0  0  0  0  0  0  0  0  0  0  0
   -6.3850  -17.1242   24.0852 H   0  0  0  0  0  0  0  0  0  0  0  0
   -6.8281  -15.6980   24.9594 H   0  0  0  0  0  0  0  0  0  0  0  0
   -4.6857  -16.9700   26.2583 H   0  0  0  0  0  0  0  0  0  0  0  0
   -4.2611  -15.5479   24.7659 H   0  0  0  0  0  0  0  0  0  0  0  0
   -2.3887  -15.0697   26.0799 H   0  0  0  0  0  0  0  0  0  0  0  0
   -2.4357  -16.9070   25.4623 H   0  0  0  0  0  0  0  0  0  0  0  0
    4.1524  -13.5436   19.0966 H   0  0  0  0  0  0  0  0  0  0  0  0
    6.1501  -13.2131   17.9186 H   0  0  0  0  0  0  0  0  0  0  0  0
    7.9061  -11.6240   18.7269 H   0  0  0  0  0  0  0  0  0  0  0  0
    7.3643  -10.4188   20.8698 H   0  0  0  0  0  0  0  0  0  0  0  0
   -3.6248  -14.3274   23.6549 H   0  0  0  0  0  0  0  0  0  0  0  0
   -2.4688  -14.7940   22.5922 H   0  0  0  0  0  0  0  0  0  0  0  0
  1  2  1  0
  2  3  1  0
  3  4  1  0
  4  5  2  0
  4  6  1  0
  6  7  1  0
  7  8  1  0
  8  9  1  0
  9 10  1  0
 10 11  1  0
 11 12  2  0
 12 13  1  0
 13 14  2  0
 14 15  1  0
 15 16  2  0
 16 17  1  0
 17 18  2  0
 18 19  1  0
 19 20  2  0
 14 21  1  0
 10 22  1  0
 22  6  1  0
 21 11  1  0
 20 15  1  0
  1 23  1  0
  1 24  1  0
  1 25  1  0
  2 26  1  0
  2 27  1  0
  6 28  1  0
  7 29  1  0
  7 30  1  0
  8 31  1  0
  8 32  1  0
  9 33  1  0
  9 34  1  0
 16 35  1  0
 17 36  1  0
 18 37  1  0
 19 38  1  0
 22 39  1  0
 22 40  1  0
M  END
>  <Energy>  (1515) 
1242.7811982451137

>  <compound_id>  (1515) 
17907

>  <target_id>  (1515) 
1

>  <reference_id>  (1515) 
123

>  <inspiration_ids>  (1515) 
[60, 123]

>  <energy_score>  (1515) 
1096.3481203900392

>  <distance_score>  (1515) 
13.238387533527312

>  <path>  (1515) 
/opt/xchem-fragalysis-2/maxwin/BulkDock/SCRATCH/511014/C17907-P123/C17907-P123.minimised.mol

>  <scratch_subdir>  (1515) 
/opt/xchem-fragalysis-2/maxwin/BulkDock/SCRATCH/511014/C17907-P123

>  <fragmenstein_runtime>  (1515) 
23.41753077507019

>  <fragmenstein_outcome>  (1515) 
too moved

>  <fragmenstein_mode>  (1515) 
expansion

>  <fragmenstein_error>  (1515) 


$$$$
C17909-P60
     RDKit          3D

 38 41  0  0  0  0  0  0  0  0999 V2000
   -6.8759  -17.7564   33.8256 C   0  0  0  0  0  0  0  0  0  0  0  0
   -7.0036  -16.4676   33.0136 C   0  0  0  0  0  0  0  0  0  0  0  0
   -6.8133  -16.6860   31.5986 O   0  0  0  0  0  0  0  0  0  0  0  0
   -5.5064  -16.8701   31.2571 C   0  0  0  0  0  0  0  0  0  0  0  0
   -4.6010  -16.7932   32.0964 O   0  0  0  0  0  0  0  0  0  0  0  0
   -5.2245  -17.1204   29.7661 C   0  0  0  0  0  0  0  0  0  0  0  0
   -5.0726  -18.5781   29.2379 C   0  0  0  0  0  0  0  0  0  0  0  0
   -4.9493  -17.8498   27.8337 C   0  0  0  0  0  0  0  0  0  0  0  0
   -6.1710  -16.9989   28.5539 C   0  0  0  0  0  0  0  0  0  0  0  0
   -3.6779  -17.0898   27.9466 N   0  0  0  0  0  0  0  0  0  0  0  0
   -2.5937  -16.7404   26.8367 C   0  0  0  0  0  0  0  0  0  0  0  0
   -2.6300  -17.1464   25.5739 N   0  0  0  0  0  0  0  0  0  0  0  0
   -2.7846  -15.9326   24.5625 N   0  0  0  0  0  0  0  0  0  0  0  0
   -1.6766  -15.2141   24.2270 C   0  0  0  0  0  0  0  0  0  0  0  0
   -0.9302  -14.6469   22.5186 C   0  0  0  0  0  0  0  0  0  0  0  0
   -2.0377  -14.6387   21.0214 C   0  0  0  0  0  0  0  0  0  0  0  0
   -2.5919  -13.4970   20.0279 C   0  0  0  0  0  0  0  0  0  0  0  0
   -2.3530  -12.1387   20.2754 C   0  0  0  0  0  0  0  0  0  0  0  0
   -1.4694  -11.9490   21.3657 C   0  0  0  0  0  0  0  0  0  0  0  0
   -0.3922  -13.0384   22.4748 N   0  0  0  0  0  0  0  0  0  0  0  0
   -2.1011  -14.6365   26.1966 S   0  0  0  0  0  0  0  0  0  0  0  0
   -3.8348  -16.6304   29.3997 C   0  0  0  0  0  0  0  0  0  0  0  0
   -7.7086  -18.4376   33.6620 H   0  0  0  0  0  0  0  0  0  0  0  0
   -5.9605  -18.3061   33.5906 H   0  0  0  0  0  0  0  0  0  0  0  0
   -6.8672  -17.5176   34.8941 H   0  0  0  0  0  0  0  0  0  0  0  0
   -8.0037  -16.0419   33.1483 H   0  0  0  0  0  0  0  0  0  0  0  0
   -6.3031  -15.7044   33.3752 H   0  0  0  0  0  0  0  0  0  0  0  0
   -5.9922  -19.0967   29.4227 H   0  0  0  0  0  0  0  0  0  0  0  0
   -4.2285  -19.1873   29.5709 H   0  0  0  0  0  0  0  0  0  0  0  0
   -5.1217  -18.4059   26.9157 H   0  0  0  0  0  0  0  0  0  0  0  0
   -6.4488  -15.9817   28.2950 H   0  0  0  0  0  0  0  0  0  0  0  0
   -7.1303  -17.5340   28.6206 H   0  0  0  0  0  0  0  0  0  0  0  0
   -2.1393  -15.5985   20.4409 H   0  0  0  0  0  0  0  0  0  0  0  0
   -3.1648  -13.8273   19.1615 H   0  0  0  0  0  0  0  0  0  0  0  0
   -2.7419  -11.3281   19.6775 H   0  0  0  0  0  0  0  0  0  0  0  0
   -1.1281  -10.8922   21.5346 H   0  0  0  0  0  0  0  0  0  0  0  0
   -3.3488  -17.1941   30.1964 H   0  0  0  0  0  0  0  0  0  0  0  0
   -3.4245  -15.6526   29.6687 H   0  0  0  0  0  0  0  0  0  0  0  0
  1  2  1  0
  2  3  1  0
  3  4  1  0
  4  5  2  0
  4  6  1  0
  6  7  1  0
  7  8  1  0
  8  9  1  0
  8 10  1  0
 10 11  1  0
 11 12  2  0
 12 13  1  0
 13 14  2  0
 14 15  1  0
 15 16  2  0
 16 17  1  0
 17 18  2  0
 18 19  1  0
 19 20  2  0
 14 21  1  0
 10 22  1  0
  9  6  1  0
 21 11  1  0
 22  6  1  0
 20 15  1  0
  1 23  1  0
  1 24  1  0
  1 25  1  0
  2 26  1  0
  2 27  1  0
  7 28  1  0
  7 29  1  0
  8 30  1  0
  9 31  1  0
  9 32  1  0
 16 33  1  0
 17 34  1  0
 18 35  1  0
 19 36  1  0
 22 37  1  0
 22 38  1  0
M  END
>  <Energy>  (1516) 
539.83889353715119

>  <compound_id>  (1516) 
17909

>  <target_id>  (1516) 
1

>  <reference_id>  (1516) 
60

>  <inspiration_ids>  (1516) 
[60, 123]

>  <energy_score>  (1516) 
386.82850669815025

>  <distance_score>  (1516) 
14.407148689590162

>  <path>  (1516) 
/opt/xchem-fragalysis-2/maxwin/BulkDock/SCRATCH/511014/C17909-P60/C17909-P60.minimised.mol

>  <scratch_subdir>  (1516) 
/opt/xchem-fragalysis-2/maxwin/BulkDock/SCRATCH/511014/C17909-P60

>  <fragmenstein_runtime>  (1516) 
36.98840093612671

>  <fragmenstein_outcome>  (1516) 
too moved

>  <fragmenstein_mode>  (1516) 
expansion

>  <fragmenstein_error>  (1516) 


$$$$
C17909-P123
     RDKit          3D

 38 41  0  0  0  0  0  0  0  0999 V2000
   -4.5043  -23.4276   24.6818 C   0  0  0  0  0  0  0  0  0  0  0  0
   -3.0421  -23.7036   24.9777 C   0  0  0  0  0  0  0  0  0  0  0  0
   -2.3812  -22.4794   25.3373 O   0  0  0  0  0  0  0  0  0  0  0  0
   -2.4680  -22.0871   26.6427 C   0  0  0  0  0  0  0  0  0  0  0  0
   -3.0472  -22.7379   27.5092 O   0  0  0  0  0  0  0  0  0  0  0  0
   -1.7703  -20.7445   26.8572 C   0  0  0  0  0  0  0  0  0  0  0  0
   -1.5191  -20.1535   28.2420 C   0  0  0  0  0  0  0  0  0  0  0  0
   -0.5545  -19.2208   27.3493 C   0  0  0  0  0  0  0  0  0  0  0  0
   -0.2488  -20.6042   26.6561 C   0  0  0  0  0  0  0  0  0  0  0  0
   -1.4750  -18.3504   26.4610 N   0  0  0  0  0  0  0  0  0  0  0  0
   -0.6618  -17.5355   25.5276 C   0  0  0  0  0  0  0  0  0  0  0  0
    0.5752  -18.4374   24.7517 N   0  0  0  0  0  0  0  0  0  0  0  0
    2.0804  -17.2313   24.3318 N   0  0  0  0  0  0  0  0  0  0  0  0
    1.5704  -15.4966   23.6371 C   0  0  0  0  0  0  0  0  0  0  0  0
    3.3571  -14.7643   23.6775 C   0  0  0  0  0  0  0  0  0  0  0  0
    4.3896  -15.8912   23.8236 C   0  0  0  0  0  0  0  0  0  0  0  0
    5.0624  -16.5570   24.9388 C   0  0  0  0  0  0  0  0  0  0  0  0
    5.3447  -15.7380   25.9766 C   0  0  0  0  0  0  0  0  0  0  0  0
    4.7293  -14.5170   25.8453 C   0  0  0  0  0  0  0  0  0  0  0  0
    3.7446  -14.0441   24.7932 N   0  0  0  0  0  0  0  0  0  0  0  0
   -0.9162  -15.2873   24.3113 S   0  0  0  0  0  0  0  0  0  0  0  0
   -2.2572  -19.5673   25.9987 C   0  0  0  0  0  0  0  0  0  0  0  0
   -4.5929  -22.5823   23.9915 H   0  0  0  0  0  0  0  0  0  0  0  0
   -4.9877  -24.2938   24.2270 H   0  0  0  0  0  0  0  0  0  0  0  0
   -5.0299  -23.1583   25.6010 H   0  0  0  0  0  0  0  0  0  0  0  0
   -2.5479  -24.0759   24.0746 H   0  0  0  0  0  0  0  0  0  0  0  0
   -2.9155  -24.4643   25.7551 H   0  0  0  0  0  0  0  0  0  0  0  0
   -2.4274  -19.7643   28.7000 H   0  0  0  0  0  0  0  0  0  0  0  0
   -1.0182  -20.8032   28.9699 H   0  0  0  0  0  0  0  0  0  0  0  0
    0.3485  -18.7321   27.7153 H   0  0  0  0  0  0  0  0  0  0  0  0
    0.1182  -20.6098   25.6278 H   0  0  0  0  0  0  0  0  0  0  0  0
    0.3825  -21.2950   27.2300 H   0  0  0  0  0  0  0  0  0  0  0  0
    5.2991  -15.3409   23.7010 H   0  0  0  0  0  0  0  0  0  0  0  0
    5.4158  -17.5764   24.8566 H   0  0  0  0  0  0  0  0  0  0  0  0
    5.9519  -16.0127   26.8250 H   0  0  0  0  0  0  0  0  0  0  0  0
    4.9652  -13.8028   26.6267 H   0  0  0  0  0  0  0  0  0  0  0  0
   -3.3329  -19.4018   26.1009 H   0  0  0  0  0  0  0  0  0  0  0  0
   -1.9360  -19.9072   25.0152 H   0  0  0  0  0  0  0  0  0  0  0  0
  1  2  1  0
  2  3  1  0
  3  4  1  0
  4  5  2  0
  4  6  1  0
  6  7  1  0
  7  8  1  0
  8  9  1  0
  8 10  1  0
 10 11  1  0
 11 12  2  0
 12 13  1  0
 13 14  2  0
 14 15  1  0
 15 16  2  0
 16 17  1  0
 17 18  2  0
 18 19  1  0
 19 20  2  0
 14 21  1  0
 10 22  1  0
  9  6  1  0
 21 11  1  0
 22  6  1  0
 20 15  1  0
  1 23  1  0
  1 24  1  0
  1 25  1  0
  2 26  1  0
  2 27  1  0
  7 28  1  0
  7 29  1  0
  8 30  1  0
  9 31  1  0
  9 32  1  0
 16 33  1  0
 17 34  1  0
 18 35  1  0
 19 36  1  0
 22 37  1  0
 22 38  1  0
M  END
>  <Energy>  (1517) 
956.95609336805342

>  <compound_id>  (1517) 
17909

>  <target_id>  (1517) 
1

>  <reference_id>  (1517) 
123

>  <inspiration_ids>  (1517) 
[60, 123]

>  <energy_score>  (1517) 
803.9457065290504

>  <distance_score>  (1517) 
14.308397265288294

>  <path>  (1517) 
/opt/xchem-fragalysis-2/maxwin/BulkDock/SCRATCH/511014/C17909-P123/C17909-P123.minimised.mol

>  <scratch_subdir>  (1517) 
/opt/xchem-fragalysis-2/maxwin/BulkDock/SCRATCH/511014/C17909-P123

>  <fragmenstein_runtime>  (1517) 
30.062487363815308

>  <fragmenstein_outcome>  (1517) 
too moved

>  <fragmenstein_mode>  (1517) 
expansion

>  <fragmenstein_error>  (1517) 


$$$$
C17910-P60
     RDKit          3D

 38 41  0  0  0  0  0  0  0  0999 V2000
   -9.7882  -16.9227   22.5033 C   0  0  0  0  0  0  0  0  0  0  0  0
   -9.4507  -15.6439   21.7269 C   0  0  0  0  0  0  0  0  0  0  0  0
   -8.5245  -15.9922   20.6846 O   0  0  0  0  0  0  0  0  0  0  0  0
   -7.3773  -15.2453   20.5642 C   0  0  0  0  0  0  0  0  0  0  0  0
   -7.2738  -14.1067   21.0058 O   0  0  0  0  0  0  0  0  0  0  0  0
   -6.2553  -16.1127   19.8977 C   0  0  0  0  0  0  0  0  0  0  0  0
   -6.6349  -17.5198   19.2440 C   0  0  0  0  0  0  0  0  0  0  0  0
   -5.1844  -17.8558   19.7052 C   0  0  0  0  0  0  0  0  0  0  0  0
   -4.2844  -16.8603   18.9578 C   0  0  0  0  0  0  0  0  0  0  0  0
   -5.0924  -15.6466   19.1043 N   0  0  0  0  0  0  0  0  0  0  0  0
   -4.6857  -14.3940   18.6571 C   0  0  0  0  0  0  0  0  0  0  0  0
   -5.3140  -13.2513   18.8541 N   0  0  0  0  0  0  0  0  0  0  0  0
   -4.6279  -12.1129   18.3959 N   0  0  0  0  0  0  0  0  0  0  0  0
   -3.4826  -12.3696   17.7843 C   0  0  0  0  0  0  0  0  0  0  0  0
   -2.5267  -11.3339   17.1931 C   0  0  0  0  0  0  0  0  0  0  0  0
   -1.9304  -11.4449   15.9300 C   0  0  0  0  0  0  0  0  0  0  0  0
   -1.1469  -10.3896   15.4136 C   0  0  0  0  0  0  0  0  0  0  0  0
   -0.9355   -9.2493   16.1785 C   0  0  0  0  0  0  0  0  0  0  0  0
   -1.5383   -9.2103   17.4226 C   0  0  0  0  0  0  0  0  0  0  0  0
   -2.3274  -10.2057   17.9271 N   0  0  0  0  0  0  0  0  0  0  0  0
   -3.2028  -14.0927   17.7245 S   0  0  0  0  0  0  0  0  0  0  0  0
   -5.5755  -17.0754   20.9716 C   0  0  0  0  0  0  0  0  0  0  0  0
   -8.8835  -17.3459   22.9520 H   0  0  0  0  0  0  0  0  0  0  0  0
  -10.1994  -17.6823   21.8307 H   0  0  0  0  0  0  0  0  0  0  0  0
  -10.5147  -16.7140   23.2932 H   0  0  0  0  0  0  0  0  0  0  0  0
   -9.0392  -14.8974   22.4142 H   0  0  0  0  0  0  0  0  0  0  0  0
  -10.3523  -15.2385   21.2581 H   0  0  0  0  0  0  0  0  0  0  0  0
   -6.8069  -17.5170   18.1628 H   0  0  0  0  0  0  0  0  0  0  0  0
   -7.4298  -18.1036   19.7228 H   0  0  0  0  0  0  0  0  0  0  0  0
   -4.8807  -18.8969   19.7944 H   0  0  0  0  0  0  0  0  0  0  0  0
   -4.1655  -17.1450   17.9072 H   0  0  0  0  0  0  0  0  0  0  0  0
   -3.3052  -16.7670   19.4401 H   0  0  0  0  0  0  0  0  0  0  0  0
   -2.1061  -12.3247   15.3181 H   0  0  0  0  0  0  0  0  0  0  0  0
   -0.7112  -10.4720   14.4210 H   0  0  0  0  0  0  0  0  0  0  0  0
   -0.3271   -8.4249   15.8267 H   0  0  0  0  0  0  0  0  0  0  0  0
   -1.4033   -8.3618   18.0885 H   0  0  0  0  0  0  0  0  0  0  0  0
   -6.2492  -17.5878   21.6684 H   0  0  0  0  0  0  0  0  0  0  0  0
   -4.7558  -16.6314   21.5257 H   0  0  0  0  0  0  0  0  0  0  0  0
  1  2  1  0
  2  3  1  0
  3  4  1  0
  4  5  2  0
  4  6  1  0
  6  7  1  0
  7  8  1  0
  8  9  1  0
  9 10  1  0
 10 11  1  0
 11 12  2  0
 12 13  1  0
 13 14  2  0
 14 15  1  0
 15 16  2  0
 16 17  1  0
 17 18  2  0
 18 19  1  0
 19 20  2  0
 14 21  1  0
  8 22  1  0
 10  6  1  0
 21 11  1  0
 22  6  1  0
 20 15  1  0
  1 23  1  0
  1 24  1  0
  1 25  1  0
  2 26  1  0
  2 27  1  0
  7 28  1  0
  7 29  1  0
  8 30  1  0
  9 31  1  0
  9 32  1  0
 16 33  1  0
 17 34  1  0
 18 35  1  0
 19 36  1  0
 22 37  1  0
 22 38  1  0
M  END
>  <Energy>  (1518) 
102.14965376873191

>  <compound_id>  (1518) 
17910

>  <target_id>  (1518) 
1

>  <reference_id>  (1518) 
60

>  <inspiration_ids>  (1518) 
[60, 123]

>  <energy_score>  (1518) 
-74.11955402859331

>  <distance_score>  (1518) 
15.343367488778227

>  <path>  (1518) 
/opt/xchem-fragalysis-2/maxwin/BulkDock/SCRATCH/511014/C17910-P60/C17910-P60.minimised.mol

>  <scratch_subdir>  (1518) 
/opt/xchem-fragalysis-2/maxwin/BulkDock/SCRATCH/511014/C17910-P60

>  <fragmenstein_runtime>  (1518) 
28.37696599960327

>  <fragmenstein_outcome>  (1518) 
too moved

>  <fragmenstein_mode>  (1518) 
expansion

>  <fragmenstein_error>  (1518) 


$$$$
C17910-P123
     RDKit          3D

 38 41  0  0  0  0  0  0  0  0999 V2000
  -14.1092  -25.6852   26.6788 C   0  0  0  0  0  0  0  0  0  0  0  0
  -13.3860  -24.7932   25.6875 C   0  0  0  0  0  0  0  0  0  0  0  0
  -12.7278  -23.7122   26.3695 O   0  0  0  0  0  0  0  0  0  0  0  0
  -11.3569  -23.6798   26.2402 C   0  0  0  0  0  0  0  0  0  0  0  0
  -10.8250  -24.1432   25.2375 O   0  0  0  0  0  0  0  0  0  0  0  0
  -10.6623  -23.0553   27.6499 C   0  0  0  0  0  0  0  0  0  0  0  0
  -11.3063  -22.6437   29.0216 C   0  0  0  0  0  0  0  0  0  0  0  0
  -10.6607  -24.0631   29.5241 C   0  0  0  0  0  0  0  0  0  0  0  0
   -9.2366  -24.3626   28.9453 C   0  0  0  0  0  0  0  0  0  0  0  0
   -8.9732  -23.0525   28.0260 N   0  0  0  0  0  0  0  0  0  0  0  0
   -7.5114  -22.1639   27.6320 C   0  0  0  0  0  0  0  0  0  0  0  0
   -6.3056  -22.7560   27.4406 N   0  0  0  0  0  0  0  0  0  0  0  0
   -5.0470  -22.0325   27.2031 N   0  0  0  0  0  0  0  0  0  0  0  0
   -4.9916  -20.6996   27.2238 C   0  0  0  0  0  0  0  0  0  0  0  0
   -3.7634  -19.7768   27.0026 C   0  0  0  0  0  0  0  0  0  0  0  0
   -3.6270  -18.4926   27.5397 C   0  0  0  0  0  0  0  0  0  0  0  0
   -2.3648  -17.8673   27.5557 C   0  0  0  0  0  0  0  0  0  0  0  0
   -1.2612  -18.5252   27.0325 C   0  0  0  0  0  0  0  0  0  0  0  0
   -1.4783  -19.7333   26.4143 C   0  0  0  0  0  0  0  0  0  0  0  0
   -2.6927  -20.3437   26.3662 N   0  0  0  0  0  0  0  0  0  0  0  0
   -6.7279  -19.9943   27.6106 S   0  0  0  0  0  0  0  0  0  0  0  0
  -11.3733  -24.5986   28.3730 C   0  0  0  0  0  0  0  0  0  0  0  0
  -13.3980  -26.3290   27.2065 H   0  0  0  0  0  0  0  0  0  0  0  0
  -14.6293  -25.1049   27.4383 H   0  0  0  0  0  0  0  0  0  0  0  0
  -14.8222  -26.3362   26.1645 H   0  0  0  0  0  0  0  0  0  0  0  0
  -14.0876  -24.3621   24.9682 H   0  0  0  0  0  0  0  0  0  0  0  0
  -12.6806  -25.4528   25.1827 H   0  0  0  0  0  0  0  0  0  0  0  0
  -10.9106  -21.7316   29.4748 H   0  0  0  0  0  0  0  0  0  0  0  0
  -12.3990  -22.5556   29.0504 H   0  0  0  0  0  0  0  0  0  0  0  0
  -10.9328  -24.4651   30.5002 H   0  0  0  0  0  0  0  0  0  0  0  0
   -9.2670  -25.2908   28.3629 H   0  0  0  0  0  0  0  0  0  0  0  0
   -8.6368  -24.6704   29.7973 H   0  0  0  0  0  0  0  0  0  0  0  0
   -4.4555  -18.0207   28.0607 H   0  0  0  0  0  0  0  0  0  0  0  0
   -2.2425  -16.9177   28.0723 H   0  0  0  0  0  0  0  0  0  0  0  0
   -0.2582  -18.1444   27.1549 H   0  0  0  0  0  0  0  0  0  0  0  0
   -0.6637  -20.3028   25.9734 H   0  0  0  0  0  0  0  0  0  0  0  0
  -12.4587  -24.6397   28.5427 H   0  0  0  0  0  0  0  0  0  0  0  0
  -11.0956  -25.5653   27.9354 H   0  0  0  0  0  0  0  0  0  0  0  0
  1  2  1  0
  2  3  1  0
  3  4  1  0
  4  5  2  0
  4  6  1  0
  6  7  1  0
  7  8  1  0
  8  9  1  0
  9 10  1  0
 10 11  1  0
 11 12  2  0
 12 13  1  0
 13 14  2  0
 14 15  1  0
 15 16  2  0
 16 17  1  0
 17 18  2  0
 18 19  1  0
 19 20  2  0
 14 21  1  0
  8 22  1  0
 10  6  1  0
 21 11  1  0
 22  6  1  0
 20 15  1  0
  1 23  1  0
  1 24  1  0
  1 25  1  0
  2 26  1  0
  2 27  1  0
  7 28  1  0
  7 29  1  0
  8 30  1  0
  9 31  1  0
  9 32  1  0
 16 33  1  0
 17 34  1  0
 18 35  1  0
 19 36  1  0
 22 37  1  0
 22 38  1  0
M  END
>  <Energy>  (1519) 
365.06284848965885

>  <compound_id>  (1519) 
17910

>  <target_id>  (1519) 
1

>  <reference_id>  (1519) 
123

>  <inspiration_ids>  (1519) 
[60, 123]

>  <energy_score>  (1519) 
188.79364069233895

>  <distance_score>  (1519) 
16.49570997342301

>  <path>  (1519) 
/opt/xchem-fragalysis-2/maxwin/BulkDock/SCRATCH/511014/C17910-P123/C17910-P123.minimised.mol

>  <scratch_subdir>  (1519) 
/opt/xchem-fragalysis-2/maxwin/BulkDock/SCRATCH/511014/C17910-P123

>  <fragmenstein_runtime>  (1519) 
32.396435499191284

>  <fragmenstein_outcome>  (1519) 
too moved

>  <fragmenstein_mode>  (1519) 
expansion

>  <fragmenstein_error>  (1519) 


$$$$
C17911-P60
     RDKit          3D

 38 41  0  0  0  0  0  0  0  0999 V2000
   -1.3208  -21.5264   27.3093 C   0  0  0  0  0  0  0  0  0  0  0  0
    0.2022  -21.6392   27.4387 C   0  0  0  0  0  0  0  0  0  0  0  0
    0.7933  -20.3261   27.4464 O   0  0  0  0  0  0  0  0  0  0  0  0
    2.1302  -20.2856   27.7408 C   0  0  0  0  0  0  0  0  0  0  0  0
    2.8537  -21.2505   27.9330 O   0  0  0  0  0  0  0  0  0  0  0  0
    2.6412  -18.8863   27.8246 C   0  0  0  0  0  0  0  0  0  0  0  0
    1.7522  -17.9276   28.6323 C   0  0  0  0  0  0  0  0  0  0  0  0
    3.1395  -18.2479   29.0897 C   0  0  0  0  0  0  0  0  0  0  0  0
    4.2503  -17.2737   28.7700 C   0  0  0  0  0  0  0  0  0  0  0  0
    4.2663  -17.2038   27.3060 N   0  0  0  0  0  0  0  0  0  0  0  0
    5.2425  -16.5146   26.5811 C   0  0  0  0  0  0  0  0  0  0  0  0
    5.7215  -16.8879   25.4039 N   0  0  0  0  0  0  0  0  0  0  0  0
    6.6226  -15.9901   24.8222 N   0  0  0  0  0  0  0  0  0  0  0  0
    6.7975  -14.8706   25.5121 C   0  0  0  0  0  0  0  0  0  0  0  0
    7.5985  -13.6654   25.0018 C   0  0  0  0  0  0  0  0  0  0  0  0
    8.4309  -13.7794   23.8729 C   0  0  0  0  0  0  0  0  0  0  0  0
    9.0188  -12.6425   23.2907 C   0  0  0  0  0  0  0  0  0  0  0  0
    8.7856  -11.3981   23.8509 C   0  0  0  0  0  0  0  0  0  0  0  0
    7.9799  -11.3543   24.9768 C   0  0  0  0  0  0  0  0  0  0  0  0
    7.3828  -12.4401   25.5577 N   0  0  0  0  0  0  0  0  0  0  0  0
    5.9360  -14.9464   27.0308 S   0  0  0  0  0  0  0  0  0  0  0  0
    3.6079  -18.4120   26.7501 C   0  0  0  0  0  0  0  0  0  0  0  0
   -1.7841  -22.5167   27.2964 H   0  0  0  0  0  0  0  0  0  0  0  0
   -1.5858  -20.9942   26.3900 H   0  0  0  0  0  0  0  0  0  0  0  0
   -1.7313  -20.9492   28.1441 H   0  0  0  0  0  0  0  0  0  0  0  0
    0.6028  -22.2022   26.5888 H   0  0  0  0  0  0  0  0  0  0  0  0
    0.4478  -22.1601   28.3711 H   0  0  0  0  0  0  0  0  0  0  0  0
    1.5864  -16.9363   28.2454 H   0  0  0  0  0  0  0  0  0  0  0  0
    0.9272  -18.3287   29.2094 H   0  0  0  0  0  0  0  0  0  0  0  0
    3.2968  -18.8432   29.9758 H   0  0  0  0  0  0  0  0  0  0  0  0
    4.0489  -16.2953   29.2166 H   0  0  0  0  0  0  0  0  0  0  0  0
    5.2043  -17.6590   29.1464 H   0  0  0  0  0  0  0  0  0  0  0  0
    8.5919  -14.7548   23.4196 H   0  0  0  0  0  0  0  0  0  0  0  0
    9.6454  -12.7449   22.4087 H   0  0  0  0  0  0  0  0  0  0  0  0
    9.2224  -10.4973   23.4366 H   0  0  0  0  0  0  0  0  0  0  0  0
    7.7729  -10.4083   25.4709 H   0  0  0  0  0  0  0  0  0  0  0  0
    4.3651  -19.1849   26.5682 H   0  0  0  0  0  0  0  0  0  0  0  0
    3.0986  -18.2065   25.8095 H   0  0  0  0  0  0  0  0  0  0  0  0
  1  2  1  0
  2  3  1  0
  3  4  1  0
  4  5  2  0
  4  6  1  0
  6  7  1  0
  7  8  1  0
  8  9  1  0
  9 10  1  0
 10 11  1  0
 11 12  2  0
 12 13  1  0
 13 14  2  0
 14 15  1  0
 15 16  2  0
 16 17  1  0
 17 18  2  0
 18 19  1  0
 19 20  2  0
 14 21  1  0
 10 22  1  0
  8  6  1  0
 21 11  1  0
 22  6  1  0
 20 15  1  0
  1 23  1  0
  1 24  1  0
  1 25  1  0
  2 26  1  0
  2 27  1  0
  7 28  1  0
  7 29  1  0
  8 30  1  0
  9 31  1  0
  9 32  1  0
 16 33  1  0
 17 34  1  0
 18 35  1  0
 19 36  1  0
 22 37  1  0
 22 38  1  0
M  END
>  <Energy>  (1520) 
44.096083933834123

>  <compound_id>  (1520) 
17911

>  <target_id>  (1520) 
1

>  <reference_id>  (1520) 
60

>  <inspiration_ids>  (1520) 
[60, 123]

>  <energy_score>  (1520) 
-150.59538055857718

>  <distance_score>  (1520) 
14.89813923051778

>  <path>  (1520) 
/opt/xchem-fragalysis-2/maxwin/BulkDock/SCRATCH/511014/C17911-P60/C17911-P60.minimised.mol

>  <scratch_subdir>  (1520) 
/opt/xchem-fragalysis-2/maxwin/BulkDock/SCRATCH/511014/C17911-P60

>  <fragmenstein_runtime>  (1520) 
24.074352741241455

>  <fragmenstein_outcome>  (1520) 
too moved

>  <fragmenstein_mode>  (1520) 
expansion

>  <fragmenstein_error>  (1520) 


$$$$
C17911-P123
     RDKit          3D

 38 41  0  0  0  0  0  0  0  0999 V2000
   -8.7514  -16.7131   27.4547 C   0  0  0  0  0  0  0  0  0  0  0  0
   -8.6659  -15.2292   27.7370 C   0  0  0  0  0  0  0  0  0  0  0  0
   -8.0733  -14.6062   26.5894 O   0  0  0  0  0  0  0  0  0  0  0  0
   -8.5308  -13.3602   26.3208 C   0  0  0  0  0  0  0  0  0  0  0  0
   -9.3970  -12.7553   26.9339 O   0  0  0  0  0  0  0  0  0  0  0  0
   -7.8169  -12.7305   25.1894 C   0  0  0  0  0  0  0  0  0  0  0  0
   -8.7005  -12.3168   24.0198 C   0  0  0  0  0  0  0  0  0  0  0  0
   -7.5996  -13.3139   23.8583 C   0  0  0  0  0  0  0  0  0  0  0  0
   -6.2606  -12.8995   23.2980 C   0  0  0  0  0  0  0  0  0  0  0  0
   -5.3888  -12.1653   24.3660 N   0  0  0  0  0  0  0  0  0  0  0  0
   -3.6577  -11.6728   24.1820 C   0  0  0  0  0  0  0  0  0  0  0  0
   -3.1380  -10.7855   22.6849 N   0  0  0  0  0  0  0  0  0  0  0  0
   -1.4210  -11.4426   21.8984 N   0  0  0  0  0  0  0  0  0  0  0  0
   -0.4338  -12.6043   22.9095 C   0  0  0  0  0  0  0  0  0  0  0  0
    1.3763  -11.9336   23.4972 C   0  0  0  0  0  0  0  0  0  0  0  0
    2.0818  -12.7665   24.3354 C   0  0  0  0  0  0  0  0  0  0  0  0
    3.1026  -13.4209   23.7430 C   0  0  0  0  0  0  0  0  0  0  0  0
    3.3169  -12.9221   22.5004 C   0  0  0  0  0  0  0  0  0  0  0  0
    3.5418  -11.7436   22.6939 C   0  0  0  0  0  0  0  0  0  0  0  0
    2.2805  -11.5889   22.6813 N   0  0  0  0  0  0  0  0  0  0  0  0
   -1.8577  -12.9096   25.1034 S   0  0  0  0  0  0  0  0  0  0  0  0
   -6.6149  -11.9166   25.5290 C   0  0  0  0  0  0  0  0  0  0  0  0
   -9.3101  -17.2233   28.2361 H   0  0  0  0  0  0  0  0  0  0  0  0
   -7.7512  -17.1499   27.3770 H   0  0  0  0  0  0  0  0  0  0  0  0
   -9.2514  -16.8548   26.4954 H   0  0  0  0  0  0  0  0  0  0  0  0
   -8.0291  -15.0407   28.6070 H   0  0  0  0  0  0  0  0  0  0  0  0
   -9.6740  -14.8509   27.9396 H   0  0  0  0  0  0  0  0  0  0  0  0
   -9.7227  -12.6785   23.9874 H   0  0  0  0  0  0  0  0  0  0  0  0
   -8.5764  -11.3232   23.6035 H   0  0  0  0  0  0  0  0  0  0  0  0
   -7.8557  -14.3479   23.6731 H   0  0  0  0  0  0  0  0  0  0  0  0
   -6.4593  -12.2799   22.4159 H   0  0  0  0  0  0  0  0  0  0  0  0
   -5.8350  -13.8640   23.0618 H   0  0  0  0  0  0  0  0  0  0  0  0
    1.6708  -13.0836   25.2967 H   0  0  0  0  0  0  0  0  0  0  0  0
    3.5918  -14.3018   24.1222 H   0  0  0  0  0  0  0  0  0  0  0  0
    3.6028  -13.3298   21.5192 H   0  0  0  0  0  0  0  0  0  0  0  0
    4.2752  -11.1562   22.1998 H   0  0  0  0  0  0  0  0  0  0  0  0
   -6.3225  -12.1773   26.5547 H   0  0  0  0  0  0  0  0  0  0  0  0
   -6.9537  -10.8799   25.5190 H   0  0  0  0  0  0  0  0  0  0  0  0
  1  2  1  0
  2  3  1  0
  3  4  1  0
  4  5  2  0
  4  6  1  0
  6  7  1  0
  7  8  1  0
  8  9  1  0
  9 10  1  0
 10 11  1  0
 11 12  2  0
 12 13  1  0
 13 14  2  0
 14 15  1  0
 15 16  2  0
 16 17  1  0
 17 18  2  0
 18 19  1  0
 19 20  2  0
 14 21  1  0
 10 22  1  0
  8  6  1  0
 21 11  1  0
 22  6  1  0
 20 15  1  0
  1 23  1  0
  1 24  1  0
  1 25  1  0
  2 26  1  0
  2 27  1  0
  7 28  1  0
  7 29  1  0
  8 30  1  0
  9 31  1  0
  9 32  1  0
 16 33  1  0
 17 34  1  0
 18 35  1  0
 19 36  1  0
 22 37  1  0
 22 38  1  0
M  END
>  <Energy>  (1521) 
958.20281822202151

>  <compound_id>  (1521) 
17911

>  <target_id>  (1521) 
1

>  <reference_id>  (1521) 
123

>  <inspiration_ids>  (1521) 
[60, 123]

>  <energy_score>  (1521) 
763.5113537296227

>  <distance_score>  (1521) 
14.310114930117596

>  <path>  (1521) 
/opt/xchem-fragalysis-2/maxwin/BulkDock/SCRATCH/511014/C17911-P123/C17911-P123.minimised.mol

>  <scratch_subdir>  (1521) 
/opt/xchem-fragalysis-2/maxwin/BulkDock/SCRATCH/511014/C17911-P123

>  <fragmenstein_runtime>  (1521) 
17.80654215812683

>  <fragmenstein_outcome>  (1521) 
too moved

>  <fragmenstein_mode>  (1521) 
expansion

>  <fragmenstein_error>  (1521) 


$$$$
C17912-P60
     RDKit          3D

 44 47  0  0  0  0  0  0  0  0999 V2000
   -2.1285  -19.9237   27.7416 C   0  0  0  0  0  0  0  0  0  0  0  0
   -0.6266  -19.7773   27.4780 C   0  0  0  0  0  0  0  0  0  0  0  0
   -0.0950  -18.6707   28.2337 O   0  0  0  0  0  0  0  0  0  0  0  0
    1.2769  -18.5940   28.2862 C   0  0  0  0  0  0  0  0  0  0  0  0
    2.0281  -19.3525   27.6857 O   0  0  0  0  0  0  0  0  0  0  0  0
    1.7320  -17.4493   29.1893 C   0  0  0  0  0  0  0  0  0  0  0  0
    3.1685  -17.0070   28.7880 C   0  0  0  0  0  0  0  0  0  0  0  0
    3.6154  -15.8457   29.5811 N   0  0  0  0  0  0  0  0  0  0  0  0
    4.5672  -14.8959   29.1765 C   0  0  0  0  0  0  0  0  0  0  0  0
    5.0132  -13.9488   29.9934 N   0  0  0  0  0  0  0  0  0  0  0  0
    5.9285  -13.0490   29.4543 N   0  0  0  0  0  0  0  0  0  0  0  0
    6.2118  -13.2637   28.1821 C   0  0  0  0  0  0  0  0  0  0  0  0
    7.1092  -12.3589   27.3283 C   0  0  0  0  0  0  0  0  0  0  0  0
    6.8581  -12.0450   25.9990 C   0  0  0  0  0  0  0  0  0  0  0  0
    7.6348  -11.1147   25.2905 C   0  0  0  0  0  0  0  0  0  0  0  0
    8.6951  -10.4974   25.9201 C   0  0  0  0  0  0  0  0  0  0  0  0
    8.9071  -10.8413   27.2413 C   0  0  0  0  0  0  0  0  0  0  0  0
    8.1451  -11.7337   27.9482 N   0  0  0  0  0  0  0  0  0  0  0  0
    5.3605  -14.7020   27.6086 S   0  0  0  0  0  0  0  0  0  0  0  0
    3.5329  -16.0097   31.0437 C   0  0  0  0  0  0  0  0  0  0  0  0
    2.5273  -17.0393   31.5362 C   0  0  0  0  0  0  0  0  0  0  0  0
    2.4646  -17.2688   32.9238 C   0  0  0  0  0  0  0  0  0  0  0  0
    1.5515  -18.1727   33.4605 C   0  0  0  0  0  0  0  0  0  0  0  0
    0.6813  -18.8534   32.6186 C   0  0  0  0  0  0  0  0  0  0  0  0
    0.7286  -18.6391   31.2401 C   0  0  0  0  0  0  0  0  0  0  0  0
    1.6589  -17.7485   30.6789 C   0  0  0  0  0  0  0  0  0  0  0  0
   -2.5445  -20.7570   27.1689 H   0  0  0  0  0  0  0  0  0  0  0  0
   -2.6536  -19.0029   27.4680 H   0  0  0  0  0  0  0  0  0  0  0  0
   -2.3125  -20.0938   28.8073 H   0  0  0  0  0  0  0  0  0  0  0  0
   -0.4563  -19.5871   26.4129 H   0  0  0  0  0  0  0  0  0  0  0  0
   -0.1207  -20.7046   27.7697 H   0  0  0  0  0  0  0  0  0  0  0  0
    1.0568  -16.6078   29.0074 H   0  0  0  0  0  0  0  0  0  0  0  0
    3.8807  -17.8299   28.9375 H   0  0  0  0  0  0  0  0  0  0  0  0
    3.1849  -16.7726   27.7213 H   0  0  0  0  0  0  0  0  0  0  0  0
    5.9934  -12.4637   25.5188 H   0  0  0  0  0  0  0  0  0  0  0  0
    7.3591  -10.8580   24.2753 H   0  0  0  0  0  0  0  0  0  0  0  0
    9.3147   -9.7649   25.4184 H   0  0  0  0  0  0  0  0  0  0  0  0
    9.7164  -10.3917   27.8117 H   0  0  0  0  0  0  0  0  0  0  0  0
    3.2562  -15.0494   31.4987 H   0  0  0  0  0  0  0  0  0  0  0  0
    4.5203  -16.3057   31.4232 H   0  0  0  0  0  0  0  0  0  0  0  0
    3.1305  -16.7311   33.5969 H   0  0  0  0  0  0  0  0  0  0  0  0
    1.5122  -18.3368   34.5341 H   0  0  0  0  0  0  0  0  0  0  0  0
   -0.0441  -19.5486   33.0345 H   0  0  0  0  0  0  0  0  0  0  0  0
    0.0151  -19.1813   30.6259 H   0  0  0  0  0  0  0  0  0  0  0  0
  1  2  1  0
  2  3  1  0
  3  4  1  0
  4  5  2  0
  4  6  1  0
  6  7  1  0
  7  8  1  0
  8  9  1  0
  9 10  2  0
 10 11  1  0
 11 12  2  0
 12 13  1  0
 13 14  2  0
 14 15  1  0
 15 16  2  0
 16 17  1  0
 17 18  2  0
 12 19  1  0
  8 20  1  0
 20 21  1  0
 21 22  2  0
 22 23  1  0
 23 24  2  0
 24 25  1  0
 25 26  2  0
 26  6  1  0
 19  9  1  0
 26 21  1  0
 18 13  1  0
  1 27  1  0
  1 28  1  0
  1 29  1  0
  2 30  1  0
  2 31  1  0
  6 32  1  0
  7 33  1  0
  7 34  1  0
 14 35  1  0
 15 36  1  0
 16 37  1  0
 17 38  1  0
 20 39  1  0
 20 40  1  0
 22 41  1  0
 23 42  1  0
 24 43  1  0
 25 44  1  0
M  END
>  <Energy>  (1522) 
84.120237261547103

>  <compound_id>  (1522) 
17912

>  <target_id>  (1522) 
1

>  <reference_id>  (1522) 
60

>  <inspiration_ids>  (1522) 
[60, 123]

>  <energy_score>  (1522) 
-65.80049405762395

>  <distance_score>  (1522) 
15.073853225841493

>  <path>  (1522) 
/opt/xchem-fragalysis-2/maxwin/BulkDock/SCRATCH/511014/C17912-P60/C17912-P60.minimised.mol

>  <scratch_subdir>  (1522) 
/opt/xchem-fragalysis-2/maxwin/BulkDock/SCRATCH/511014/C17912-P60

>  <fragmenstein_runtime>  (1522) 
26.634770154953003

>  <fragmenstein_outcome>  (1522) 
too moved

>  <fragmenstein_mode>  (1522) 
expansion

>  <fragmenstein_error>  (1522) 


$$$$
C17912-P123
     RDKit          3D

 44 47  0  0  0  0  0  0  0  0999 V2000
   -2.3808  -19.9744   27.6598 C   0  0  0  0  0  0  0  0  0  0  0  0
   -0.8794  -19.8509   27.3842 C   0  0  0  0  0  0  0  0  0  0  0  0
   -0.3270  -18.7448   28.1255 O   0  0  0  0  0  0  0  0  0  0  0  0
    1.0457  -18.7066   28.1948 C   0  0  0  0  0  0  0  0  0  0  0  0
    1.7817  -19.5005   27.6216 O   0  0  0  0  0  0  0  0  0  0  0  0
    1.5229  -17.5604   29.0829 C   0  0  0  0  0  0  0  0  0  0  0  0
    2.9827  -17.1788   28.7054 C   0  0  0  0  0  0  0  0  0  0  0  0
    3.4358  -16.0050   29.4701 N   0  0  0  0  0  0  0  0  0  0  0  0
    4.3487  -15.0344   29.0393 C   0  0  0  0  0  0  0  0  0  0  0  0
    4.6613  -13.9855   29.7919 N   0  0  0  0  0  0  0  0  0  0  0  0
    5.5043  -13.0499   29.2122 N   0  0  0  0  0  0  0  0  0  0  0  0
    5.9103  -13.3699   27.9945 C   0  0  0  0  0  0  0  0  0  0  0  0
    6.7427  -12.4225   27.1237 C   0  0  0  0  0  0  0  0  0  0  0  0
    6.9305  -11.0810   27.5066 C   0  0  0  0  0  0  0  0  0  0  0  0
    7.6638  -10.1898   26.7035 C   0  0  0  0  0  0  0  0  0  0  0  0
    8.2373  -10.6506   25.5348 C   0  0  0  0  0  0  0  0  0  0  0  0
    8.0350  -11.9822   25.2237 C   0  0  0  0  0  0  0  0  0  0  0  0
    7.2859  -12.8642   25.9625 N   0  0  0  0  0  0  0  0  0  0  0  0
    5.2604  -14.9356   27.5254 S   0  0  0  0  0  0  0  0  0  0  0  0
    3.2776  -16.0801   30.9313 C   0  0  0  0  0  0  0  0  0  0  0  0
    2.2775  -17.1100   31.4333 C   0  0  0  0  0  0  0  0  0  0  0  0
    2.1938  -17.3120   32.8237 C   0  0  0  0  0  0  0  0  0  0  0  0
    1.2719  -18.2055   33.3631 C   0  0  0  0  0  0  0  0  0  0  0  0
    0.4134  -18.9013   32.5211 C   0  0  0  0  0  0  0  0  0  0  0  0
    0.4808  -18.7129   31.1396 C   0  0  0  0  0  0  0  0  0  0  0  0
    1.4194  -17.8328   30.5768 C   0  0  0  0  0  0  0  0  0  0  0  0
   -2.8954  -19.0487   27.3828 H   0  0  0  0  0  0  0  0  0  0  0  0
   -2.5594  -20.1337   28.7281 H   0  0  0  0  0  0  0  0  0  0  0  0
   -2.8126  -20.8063   27.0967 H   0  0  0  0  0  0  0  0  0  0  0  0
   -0.7137  -19.6717   26.3165 H   0  0  0  0  0  0  0  0  0  0  0  0
   -0.3856  -20.7837   27.6794 H   0  0  0  0  0  0  0  0  0  0  0  0
    0.8849  -16.6949   28.8750 H   0  0  0  0  0  0  0  0  0  0  0  0
    3.0407  -16.9888   27.6310 H   0  0  0  0  0  0  0  0  0  0  0  0
    3.6647  -18.0156   28.9088 H   0  0  0  0  0  0  0  0  0  0  0  0
    6.4983  -10.7227   28.4380 H   0  0  0  0  0  0  0  0  0  0  0  0
    7.7903   -9.1550   27.0094 H   0  0  0  0  0  0  0  0  0  0  0  0
    8.8283  -10.0008   24.9017 H   0  0  0  0  0  0  0  0  0  0  0  0
    8.4916  -12.4134   24.3369 H   0  0  0  0  0  0  0  0  0  0  0  0
    2.9471  -15.1050   31.3126 H   0  0  0  0  0  0  0  0  0  0  0  0
    4.2526  -16.3168   31.3781 H   0  0  0  0  0  0  0  0  0  0  0  0
    2.8478  -16.7600   33.4966 H   0  0  0  0  0  0  0  0  0  0  0  0
    1.2151  -18.3486   34.4389 H   0  0  0  0  0  0  0  0  0  0  0  0
   -0.3193  -19.5874   32.9394 H   0  0  0  0  0  0  0  0  0  0  0  0
   -0.2234  -19.2664   30.5249 H   0  0  0  0  0  0  0  0  0  0  0  0
  1  2  1  0
  2  3  1  0
  3  4  1  0
  4  5  2  0
  4  6  1  0
  6  7  1  0
  7  8  1  0
  8  9  1  0
  9 10  2  0
 10 11  1  0
 11 12  2  0
 12 13  1  0
 13 14  2  0
 14 15  1  0
 15 16  2  0
 16 17  1  0
 17 18  2  0
 12 19  1  0
  8 20  1  0
 20 21  1  0
 21 22  2  0
 22 23  1  0
 23 24  2  0
 24 25  1  0
 25 26  2  0
 26  6  1  0
 19  9  1  0
 26 21  1  0
 18 13  1  0
  1 27  1  0
  1 28  1  0
  1 29  1  0
  2 30  1  0
  2 31  1  0
  6 32  1  0
  7 33  1  0
  7 34  1  0
 14 35  1  0
 15 36  1  0
 16 37  1  0
 17 38  1  0
 20 39  1  0
 20 40  1  0
 22 41  1  0
 23 42  1  0
 24 43  1  0
 25 44  1  0
M  END
>  <Energy>  (1523) 
78.577173315211326

>  <compound_id>  (1523) 
17912

>  <target_id>  (1523) 
1

>  <reference_id>  (1523) 
123

>  <inspiration_ids>  (1523) 
[60, 123]

>  <energy_score>  (1523) 
-71.34355800395485

>  <distance_score>  (1523) 
14.944057507012507

>  <path>  (1523) 
/opt/xchem-fragalysis-2/maxwin/BulkDock/SCRATCH/511014/C17912-P123/C17912-P123.minimised.mol

>  <scratch_subdir>  (1523) 
/opt/xchem-fragalysis-2/maxwin/BulkDock/SCRATCH/511014/C17912-P123

>  <fragmenstein_runtime>  (1523) 
36.857874631881714

>  <fragmenstein_outcome>  (1523) 
too moved

>  <fragmenstein_mode>  (1523) 
expansion

>  <fragmenstein_error>  (1523) 


$$$$
C17928-P60
     RDKit          3D

 34 36  0  0  0  0  0  0  0  0999 V2000
  -11.1319  -20.2631   22.8229 C   0  0  0  0  0  0  0  0  0  0  0  0
  -10.6673  -18.8302   22.3553 C   0  0  0  0  0  0  0  0  0  0  0  0
   -9.2269  -18.6238   22.4824 O   0  0  0  0  0  0  0  0  0  0  0  0
   -8.6525  -17.4962   21.9400 C   0  0  0  0  0  0  0  0  0  0  0  0
   -9.1892  -16.4008   21.9004 O   0  0  0  0  0  0  0  0  0  0  0  0
   -7.2993  -17.7612   21.3110 C   0  0  0  0  0  0  0  0  0  0  0  0
   -6.3571  -16.6422   20.8583 C   0  0  0  0  0  0  0  0  0  0  0  0
   -5.2186  -16.7610   19.8856 C   0  0  0  0  0  0  0  0  0  0  0  0
   -3.6993  -15.7345   19.5002 C   0  0  0  0  0  0  0  0  0  0  0  0
   -3.5187  -14.2279   19.0734 C   0  0  0  0  0  0  0  0  0  0  0  0
   -3.0777  -15.2826   18.1337 C   0  0  0  0  0  0  0  0  0  0  0  0
   -5.2110  -18.1701   19.6323 C   0  0  0  0  0  0  0  0  0  0  0  0
   -5.9395  -19.2535   20.2073 N   0  0  0  0  0  0  0  0  0  0  0  0
   -7.0194  -19.0855   20.9829 C   0  0  0  0  0  0  0  0  0  0  0  0
   -7.8467  -20.3515   21.1040 C   0  0  0  0  0  0  0  0  0  0  0  0
   -8.8847  -20.6595   20.0395 C   0  0  0  0  0  0  0  0  0  0  0  0
   -7.6522  -21.4984   20.1233 C   0  0  0  0  0  0  0  0  0  0  0  0
  -12.1214  -20.4637   22.3987 H   0  0  0  0  0  0  0  0  0  0  0  0
  -10.4449  -21.0386   22.4826 H   0  0  0  0  0  0  0  0  0  0  0  0
  -11.2394  -20.3470   23.8978 H   0  0  0  0  0  0  0  0  0  0  0  0
  -10.9234  -18.7139   21.2962 H   0  0  0  0  0  0  0  0  0  0  0  0
  -11.1946  -18.0593   22.9262 H   0  0  0  0  0  0  0  0  0  0  0  0
   -6.6098  -15.6431   21.2164 H   0  0  0  0  0  0  0  0  0  0  0  0
   -2.9209  -16.1904   20.1081 H   0  0  0  0  0  0  0  0  0  0  0  0
   -2.7785  -13.6338   19.5830 H   0  0  0  0  0  0  0  0  0  0  0  0
   -4.4156  -13.6745   18.8135 H   0  0  0  0  0  0  0  0  0  0  0  0
   -3.6705  -15.4529   17.2419 H   0  0  0  0  0  0  0  0  0  0  0  0
   -2.0138  -15.4401   17.9960 H   0  0  0  0  0  0  0  0  0  0  0  0
   -4.4159  -18.5470   18.9795 H   0  0  0  0  0  0  0  0  0  0  0  0
   -7.9965  -20.7165   22.1079 H   0  0  0  0  0  0  0  0  0  0  0  0
   -8.9766  -19.9918   19.1902 H   0  0  0  0  0  0  0  0  0  0  0  0
   -9.8130  -21.1403   20.3217 H   0  0  0  0  0  0  0  0  0  0  0  0
   -7.7569  -22.5096   20.5038 H   0  0  0  0  0  0  0  0  0  0  0  0
   -6.9222  -21.4081   19.3276 H   0  0  0  0  0  0  0  0  0  0  0  0
  1  2  1  0
  2  3  1  0
  3  4  1  0
  4  5  2  0
  4  6  1  0
  6  7  2  0
  7  8  1  0
  8  9  1  0
  9 10  1  0
 10 11  1  0
  8 12  2  0
 12 13  1  0
 13 14  2  0
 14 15  1  0
 15 16  1  0
 16 17  1  0
 14  6  1  0
 17 15  1  0
 11  9  1  0
  1 18  1  0
  1 19  1  0
  1 20  1  0
  2 21  1  0
  2 22  1  0
  7 23  1  0
  9 24  1  0
 10 25  1  0
 10 26  1  0
 11 27  1  0
 11 28  1  0
 12 29  1  0
 15 30  1  0
 16 31  1  0
 16 32  1  0
 17 33  1  0
 17 34  1  0
M  END
>  <Energy>  (1524) 
145.57453216051266

>  <compound_id>  (1524) 
17928

>  <target_id>  (1524) 
1

>  <reference_id>  (1524) 
60

>  <inspiration_ids>  (1524) 
[60, 123]

>  <energy_score>  (1524) 
57.847716822470886

>  <distance_score>  (1524) 
15.767990665465778

>  <path>  (1524) 
/opt/xchem-fragalysis-2/maxwin/BulkDock/SCRATCH/511014/C17928-P60/C17928-P60.minimised.mol

>  <scratch_subdir>  (1524) 
/opt/xchem-fragalysis-2/maxwin/BulkDock/SCRATCH/511014/C17928-P60

>  <fragmenstein_runtime>  (1524) 
29.596762895584106

>  <fragmenstein_outcome>  (1524) 
too moved

>  <fragmenstein_mode>  (1524) 
expansion

>  <fragmenstein_error>  (1524) 


$$$$
C17928-P123
     RDKit          3D

 34 36  0  0  0  0  0  0  0  0999 V2000
  -11.3780  -15.1463   28.3765 C   0  0  0  0  0  0  0  0  0  0  0  0
  -10.6164  -13.8829   28.8614 C   0  0  0  0  0  0  0  0  0  0  0  0
   -9.3694  -13.8266   28.1486 O   0  0  0  0  0  0  0  0  0  0  0  0
   -8.7871  -12.6213   27.9437 C   0  0  0  0  0  0  0  0  0  0  0  0
   -8.9780  -11.6094   28.5951 O   0  0  0  0  0  0  0  0  0  0  0  0
   -7.9301  -12.6825   26.7263 C   0  0  0  0  0  0  0  0  0  0  0  0
   -6.9265  -11.6205   26.4806 C   0  0  0  0  0  0  0  0  0  0  0  0
   -6.2282  -11.3455   25.2155 C   0  0  0  0  0  0  0  0  0  0  0  0
   -5.1553   -9.9006   24.8463 C   0  0  0  0  0  0  0  0  0  0  0  0
   -4.1911   -9.4210   23.6873 C   0  0  0  0  0  0  0  0  0  0  0  0
   -3.6194   -9.9309   24.9560 C   0  0  0  0  0  0  0  0  0  0  0  0
   -6.6878  -12.3852   24.3688 C   0  0  0  0  0  0  0  0  0  0  0  0
   -7.5375  -13.5067   24.6049 N   0  0  0  0  0  0  0  0  0  0  0  0
   -8.2176  -13.6417   25.7494 C   0  0  0  0  0  0  0  0  0  0  0  0
   -9.3346  -14.6602   25.6565 C   0  0  0  0  0  0  0  0  0  0  0  0
   -9.7831  -15.1940   24.3034 C   0  0  0  0  0  0  0  0  0  0  0  0
  -10.6390  -14.2036   25.0246 C   0  0  0  0  0  0  0  0  0  0  0  0
  -12.0563  -15.4932   29.1625 H   0  0  0  0  0  0  0  0  0  0  0  0
  -10.7062  -15.9264   28.0162 H   0  0  0  0  0  0  0  0  0  0  0  0
  -12.0058  -14.8150   27.5454 H   0  0  0  0  0  0  0  0  0  0  0  0
  -10.4007  -13.9364   29.9316 H   0  0  0  0  0  0  0  0  0  0  0  0
  -11.2183  -12.9878   28.6675 H   0  0  0  0  0  0  0  0  0  0  0  0
   -6.7726  -10.8963   27.2855 H   0  0  0  0  0  0  0  0  0  0  0  0
   -5.6511   -9.0669   25.3522 H   0  0  0  0  0  0  0  0  0  0  0  0
   -4.2041   -9.9477   22.7542 H   0  0  0  0  0  0  0  0  0  0  0  0
   -4.1487   -8.3463   23.5177 H   0  0  0  0  0  0  0  0  0  0  0  0
   -3.2933  -10.9471   25.1200 H   0  0  0  0  0  0  0  0  0  0  0  0
   -3.1938   -9.2141   25.6517 H   0  0  0  0  0  0  0  0  0  0  0  0
   -6.3838  -12.3577   23.3243 H   0  0  0  0  0  0  0  0  0  0  0  0
   -9.3286  -15.4367   26.4121 H   0  0  0  0  0  0  0  0  0  0  0  0
   -9.2768  -14.8612   23.4038 H   0  0  0  0  0  0  0  0  0  0  0  0
  -10.1178  -16.2224   24.2523 H   0  0  0  0  0  0  0  0  0  0  0  0
  -11.5819  -14.5450   25.4237 H   0  0  0  0  0  0  0  0  0  0  0  0
  -10.6912  -13.1988   24.6155 H   0  0  0  0  0  0  0  0  0  0  0  0
  1  2  1  0
  2  3  1  0
  3  4  1  0
  4  5  2  0
  4  6  1  0
  6  7  2  0
  7  8  1  0
  8  9  1  0
  9 10  1  0
 10 11  1  0
  8 12  2  0
 12 13  1  0
 13 14  2  0
 14 15  1  0
 15 16  1  0
 16 17  1  0
 14  6  1  0
 17 15  1  0
 11  9  1  0
  1 18  1  0
  1 19  1  0
  1 20  1  0
  2 21  1  0
  2 22  1  0
  7 23  1  0
  9 24  1  0
 10 25  1  0
 10 26  1  0
 11 27  1  0
 11 28  1  0
 12 29  1  0
 15 30  1  0
 16 31  1  0
 16 32  1  0
 17 33  1  0
 17 34  1  0
M  END
>  <Energy>  (1525) 
122.79982153952307

>  <compound_id>  (1525) 
17928

>  <target_id>  (1525) 
1

>  <reference_id>  (1525) 
123

>  <inspiration_ids>  (1525) 
[60, 123]

>  <energy_score>  (1525) 
35.07300620147606

>  <distance_score>  (1525) 
15.8554386898669

>  <path>  (1525) 
/opt/xchem-fragalysis-2/maxwin/BulkDock/SCRATCH/511014/C17928-P123/C17928-P123.minimised.mol

>  <scratch_subdir>  (1525) 
/opt/xchem-fragalysis-2/maxwin/BulkDock/SCRATCH/511014/C17928-P123

>  <fragmenstein_runtime>  (1525) 
27.120271921157837

>  <fragmenstein_outcome>  (1525) 
too moved

>  <fragmenstein_mode>  (1525) 
expansion

>  <fragmenstein_error>  (1525) 


$$$$
C17929-P60
     RDKit          3D

 36 38  0  0  0  0  0  0  0  0999 V2000
   -3.9056  -20.8356   28.6756 C   0  0  0  0  0  0  0  0  0  0  0  0
   -4.4820  -19.7396   27.7940 C   0  0  0  0  0  0  0  0  0  0  0  0
   -4.7938  -18.3386   28.3539 O   0  0  0  0  0  0  0  0  0  0  0  0
   -3.9323  -17.1191   28.5371 C   0  0  0  0  0  0  0  0  0  0  0  0
   -4.1419  -16.5338   29.6000 O   0  0  0  0  0  0  0  0  0  0  0  0
   -2.6334  -16.6584   27.3807 C   0  0  0  0  0  0  0  0  0  0  0  0
   -2.2906  -17.5479   26.5054 C   0  0  0  0  0  0  0  0  0  0  0  0
   -2.4913  -17.0159   25.3006 N   0  0  0  0  0  0  0  0  0  0  0  0
   -2.4979  -15.6478   24.8550 C   0  0  0  0  0  0  0  0  0  0  0  0
   -1.8539  -14.6256   25.4827 C   0  0  0  0  0  0  0  0  0  0  0  0
   -0.3378  -14.1909   24.4321 C   0  0  0  0  0  0  0  0  0  0  0  0
    1.1784  -13.5867   25.1535 C   0  0  0  0  0  0  0  0  0  0  0  0
    2.4886  -12.9946   24.2136 C   0  0  0  0  0  0  0  0  0  0  0  0
    2.4025  -12.1541   23.1824 C   0  0  0  0  0  0  0  0  0  0  0  0
    3.4329  -11.4326   22.2891 C   0  0  0  0  0  0  0  0  0  0  0  0
    4.8388  -11.9568   22.0804 C   0  0  0  0  0  0  0  0  0  0  0  0
    4.6334  -10.6728   22.8210 C   0  0  0  0  0  0  0  0  0  0  0  0
    0.8645  -12.1427   22.9073 N   0  0  0  0  0  0  0  0  0  0  0  0
   -0.1564  -13.6574   23.1917 C   0  0  0  0  0  0  0  0  0  0  0  0
   -2.0282  -15.1719   27.0306 C   0  0  0  0  0  0  0  0  0  0  0  0
   -4.0958  -21.7799   28.1708 H   0  0  0  0  0  0  0  0  0  0  0  0
   -2.8152  -20.8862   28.6588 H   0  0  0  0  0  0  0  0  0  0  0  0
   -4.1673  -20.7500   29.7276 H   0  0  0  0  0  0  0  0  0  0  0  0
   -5.3764  -20.0339   27.2465 H   0  0  0  0  0  0  0  0  0  0  0  0
   -3.6498  -19.7703   27.1053 H   0  0  0  0  0  0  0  0  0  0  0  0
   -2.1842  -18.6047   26.5998 H   0  0  0  0  0  0  0  0  0  0  0  0
   -2.9503  -15.4838   23.8953 H   0  0  0  0  0  0  0  0  0  0  0  0
    1.3877  -13.7507   26.2060 H   0  0  0  0  0  0  0  0  0  0  0  0
    3.4902  -13.3978   24.4227 H   0  0  0  0  0  0  0  0  0  0  0  0
    2.9704  -10.9854   21.4106 H   0  0  0  0  0  0  0  0  0  0  0  0
    5.2417  -11.9135   21.0748 H   0  0  0  0  0  0  0  0  0  0  0  0
    5.1588  -12.8266   22.6419 H   0  0  0  0  0  0  0  0  0  0  0  0
    4.8484  -10.6740   23.8804 H   0  0  0  0  0  0  0  0  0  0  0  0
    4.8989   -9.7480   22.3212 H   0  0  0  0  0  0  0  0  0  0  0  0
   -0.2899  -14.2538   22.3165 H   0  0  0  0  0  0  0  0  0  0  0  0
   -2.0690  -14.5228   27.8749 H   0  0  0  0  0  0  0  0  0  0  0  0
  1  2  1  0
  2  3  1  0
  3  4  1  0
  4  5  2  0
  4  6  1  0
  6  7  2  0
  7  8  1  0
  8  9  2  0
  9 10  1  0
 10 11  1  0
 11 12  2  0
 12 13  1  0
 13 14  2  0
 14 15  1  0
 15 16  1  0
 16 17  1  0
 14 18  1  0
 18 19  2  0
 10 20  2  0
 20  6  1  0
 19 11  1  0
 17 15  1  0
  1 21  1  0
  1 22  1  0
  1 23  1  0
  2 24  1  0
  2 25  1  0
  7 26  1  0
  9 27  1  0
 12 28  1  0
 13 29  1  0
 15 30  1  0
 16 31  1  0
 16 32  1  0
 17 33  1  0
 17 34  1  0
 19 35  1  0
 20 36  1  0
M  END
>  <Energy>  (1526) 
545.6697647228624

>  <compound_id>  (1526) 
17929

>  <target_id>  (1526) 
1

>  <reference_id>  (1526) 
60

>  <inspiration_ids>  (1526) 
[60, 123]

>  <energy_score>  (1526) 
460.22592343935526

>  <distance_score>  (1526) 
14.03457324421033

>  <path>  (1526) 
/opt/xchem-fragalysis-2/maxwin/BulkDock/SCRATCH/511014/C17929-P60/C17929-P60.minimised.mol

>  <scratch_subdir>  (1526) 
/opt/xchem-fragalysis-2/maxwin/BulkDock/SCRATCH/511014/C17929-P60

>  <fragmenstein_runtime>  (1526) 
24.427827835083008

>  <fragmenstein_outcome>  (1526) 
too moved

>  <fragmenstein_mode>  (1526) 
expansion

>  <fragmenstein_error>  (1526) 


$$$$
C17929-P123
     RDKit          3D

 36 38  0  0  0  0  0  0  0  0999 V2000
   -3.0120  -18.0520   33.1212 C   0  0  0  0  0  0  0  0  0  0  0  0
   -1.6698  -17.3919   33.4767 C   0  0  0  0  0  0  0  0  0  0  0  0
   -1.6336  -16.0827   32.8791 O   0  0  0  0  0  0  0  0  0  0  0  0
   -0.5362  -15.7988   32.1243 C   0  0  0  0  0  0  0  0  0  0  0  0
    0.6253  -16.0196   32.4159 O   0  0  0  0  0  0  0  0  0  0  0  0
   -0.9926  -15.2612   30.8171 C   0  0  0  0  0  0  0  0  0  0  0  0
   -2.3051  -14.9772   30.6023 C   0  0  0  0  0  0  0  0  0  0  0  0
   -2.7424  -14.9565   29.3063 N   0  0  0  0  0  0  0  0  0  0  0  0
   -1.9843  -14.9695   28.0270 C   0  0  0  0  0  0  0  0  0  0  0  0
   -0.6625  -14.8319   27.9379 C   0  0  0  0  0  0  0  0  0  0  0  0
    0.4521  -13.6744   26.6863 C   0  0  0  0  0  0  0  0  0  0  0  0
    1.0312  -13.7423   25.3653 C   0  0  0  0  0  0  0  0  0  0  0  0
    2.3572  -13.3026   24.0603 C   0  0  0  0  0  0  0  0  0  0  0  0
    2.9463  -12.2430   23.8495 C   0  0  0  0  0  0  0  0  0  0  0  0
    3.7639  -11.5717   22.7951 C   0  0  0  0  0  0  0  0  0  0  0  0
    4.8723  -10.5782   23.1074 C   0  0  0  0  0  0  0  0  0  0  0  0
    5.2218  -11.9326   22.5804 C   0  0  0  0  0  0  0  0  0  0  0  0
    2.0049  -12.0514   24.7611 N   0  0  0  0  0  0  0  0  0  0  0  0
    1.4526  -12.9336   26.2431 C   0  0  0  0  0  0  0  0  0  0  0  0
   -0.2395  -15.4341   29.5417 C   0  0  0  0  0  0  0  0  0  0  0  0
   -3.8361  -17.4832   33.5647 H   0  0  0  0  0  0  0  0  0  0  0  0
   -3.0503  -19.0785   33.4954 H   0  0  0  0  0  0  0  0  0  0  0  0
   -3.1765  -18.0490   32.0420 H   0  0  0  0  0  0  0  0  0  0  0  0
   -1.5808  -17.2760   34.5610 H   0  0  0  0  0  0  0  0  0  0  0  0
   -0.8459  -18.0184   33.1166 H   0  0  0  0  0  0  0  0  0  0  0  0
   -3.0683  -14.8922   31.3626 H   0  0  0  0  0  0  0  0  0  0  0  0
   -2.4290  -14.7954   27.0907 H   0  0  0  0  0  0  0  0  0  0  0  0
    0.4226  -14.2888   24.4866 H   0  0  0  0  0  0  0  0  0  0  0  0
    2.7113  -14.1114   23.3805 H   0  0  0  0  0  0  0  0  0  0  0  0
    3.2076  -11.3519   21.8855 H   0  0  0  0  0  0  0  0  0  0  0  0
    4.9806   -9.7277   22.4442 H   0  0  0  0  0  0  0  0  0  0  0  0
    5.1242  -10.3647   24.1383 H   0  0  0  0  0  0  0  0  0  0  0  0
    5.6822  -12.6394   23.2622 H   0  0  0  0  0  0  0  0  0  0  0  0
    5.5730  -12.0127   21.5582 H   0  0  0  0  0  0  0  0  0  0  0  0
    2.3689  -13.5618   26.7112 H   0  0  0  0  0  0  0  0  0  0  0  0
    0.7550  -15.8973   29.6913 H   0  0  0  0  0  0  0  0  0  0  0  0
  1  2  1  0
  2  3  1  0
  3  4  1  0
  4  5  2  0
  4  6  1  0
  6  7  2  0
  7  8  1  0
  8  9  2  0
  9 10  1  0
 10 11  1  0
 11 12  2  0
 12 13  1  0
 13 14  2  0
 14 15  1  0
 15 16  1  0
 16 17  1  0
 14 18  1  0
 18 19  2  0
 10 20  2  0
 20  6  1  0
 19 11  1  0
 17 15  1  0
  1 21  1  0
  1 22  1  0
  1 23  1  0
  2 24  1  0
  2 25  1  0
  7 26  1  0
  9 27  1  0
 12 28  1  0
 13 29  1  0
 15 30  1  0
 16 31  1  0
 16 32  1  0
 17 33  1  0
 17 34  1  0
 19 35  1  0
 20 36  1  0
M  END
>  <Energy>  (1527) 
684.9505360229582

>  <compound_id>  (1527) 
17929

>  <target_id>  (1527) 
1

>  <reference_id>  (1527) 
123

>  <inspiration_ids>  (1527) 
[60, 123]

>  <energy_score>  (1527) 
599.5066947394564

>  <distance_score>  (1527) 
14.771517274607582

>  <path>  (1527) 
/opt/xchem-fragalysis-2/maxwin/BulkDock/SCRATCH/511014/C17929-P123/C17929-P123.minimised.mol

>  <scratch_subdir>  (1527) 
/opt/xchem-fragalysis-2/maxwin/BulkDock/SCRATCH/511014/C17929-P123

>  <fragmenstein_runtime>  (1527) 
18.995564937591553

>  <fragmenstein_outcome>  (1527) 
too moved

>  <fragmenstein_mode>  (1527) 
expansion

>  <fragmenstein_error>  (1527) 


$$$$
C15915-P60
     RDKit          3D

 40 41  0  0  0  0  0  0  0  0999 V2000
    6.9580   -9.6802   29.6907 C   0  0  0  0  0  0  0  0  0  0  0  0
    6.2184   -9.7262   28.3934 N   0  0  0  0  0  0  0  0  0  0  0  0
    5.2236  -10.6332   29.2568 C   0  0  0  0  0  0  0  0  0  0  0  0
    5.3820  -12.1923   29.1856 C   0  0  0  0  0  0  0  0  0  0  0  0
    4.4038  -13.0708   29.8955 N   0  0  0  0  0  0  0  0  0  0  0  0
    2.9295  -13.1521   29.8041 C   0  0  0  0  0  0  0  0  0  0  0  0
    2.1481  -12.4770   29.1954 O   0  0  0  0  0  0  0  0  0  0  0  0
    2.4334  -14.3722   30.6845 C   0  0  0  0  0  0  0  0  0  0  0  0
    1.0342  -14.9968   30.5141 C   0  0  0  0  0  0  0  0  0  0  0  0
   -0.2519  -14.4394   30.7667 C   0  0  0  0  0  0  0  0  0  0  0  0
   -1.2519  -15.3274   30.6869 N   0  0  0  0  0  0  0  0  0  0  0  0
   -0.6342  -16.4706   30.3607 N   0  0  0  0  0  0  0  0  0  0  0  0
    0.7240  -16.3281   30.2520 C   0  0  0  0  0  0  0  0  0  0  0  0
    6.0565   -8.3881   27.8649 C   0  0  0  0  0  0  0  0  0  0  0  0
    5.1649   -7.5886   28.0196 O   0  0  0  0  0  0  0  0  0  0  0  0
    7.2128   -7.7780   27.0558 C   0  0  0  0  0  0  0  0  0  0  0  0
    7.5472   -6.4552   27.4366 C   0  0  0  0  0  0  0  0  0  0  0  0
    8.6251   -5.7638   26.8837 C   0  0  0  0  0  0  0  0  0  0  0  0
    9.3848   -6.4243   25.9549 C   0  0  0  0  0  0  0  0  0  0  0  0
    9.0652   -7.6454   25.4779 N   0  0  0  0  0  0  0  0  0  0  0  0
    7.9764   -8.2869   26.0008 C   0  0  0  0  0  0  0  0  0  0  0  0
    7.6787   -9.4363   25.2778 N   0  0  0  0  0  0  0  0  0  0  0  0
    7.2862  -10.6460   30.0934 H   0  0  0  0  0  0  0  0  0  0  0  0
    7.9066   -9.1716   29.4622 H   0  0  0  0  0  0  0  0  0  0  0  0
    6.4912   -9.0143   30.4325 H   0  0  0  0  0  0  0  0  0  0  0  0
    4.2646  -10.3920   28.7861 H   0  0  0  0  0  0  0  0  0  0  0  0
    5.0035  -10.2890   30.2831 H   0  0  0  0  0  0  0  0  0  0  0  0
    6.3531  -12.4752   29.6045 H   0  0  0  0  0  0  0  0  0  0  0  0
    5.4078  -12.5215   28.1448 H   0  0  0  0  0  0  0  0  0  0  0  0
    4.7475  -13.8566   30.4370 H   0  0  0  0  0  0  0  0  0  0  0  0
    2.5152  -14.0444   31.7293 H   0  0  0  0  0  0  0  0  0  0  0  0
    3.1553  -15.1882   30.5454 H   0  0  0  0  0  0  0  0  0  0  0  0
   -0.4880  -13.4168   31.0346 H   0  0  0  0  0  0  0  0  0  0  0  0
   -1.1955  -17.3078   30.2395 H   0  0  0  0  0  0  0  0  0  0  0  0
    1.3487  -17.1814   30.0299 H   0  0  0  0  0  0  0  0  0  0  0  0
    6.9665   -5.9607   28.2156 H   0  0  0  0  0  0  0  0  0  0  0  0
    8.8878   -4.7689   27.2240 H   0  0  0  0  0  0  0  0  0  0  0  0
   10.2967   -5.9795   25.5699 H   0  0  0  0  0  0  0  0  0  0  0  0
    6.8214   -9.2631   24.7387 H   0  0  0  0  0  0  0  0  0  0  0  0
    8.4312   -9.5058   24.5978 H   0  0  0  0  0  0  0  0  0  0  0  0
  1  2  1  0
  2  3  1  0
  3  4  1  0
  4  5  1  0
  5  6  1  0
  6  7  2  0
  6  8  1  0
  8  9  1  0
  9 10  1  0
 10 11  2  0
 11 12  1  0
 12 13  1  0
  2 14  1  0
 14 15  2  0
 14 16  1  0
 16 17  2  0
 17 18  1  0
 18 19  2  0
 19 20  1  0
 20 21  2  0
 21 22  1  0
 13  9  2  0
 21 16  1  0
  1 23  1  0
  1 24  1  0
  1 25  1  0
  3 26  1  0
  3 27  1  0
  4 28  1  0
  4 29  1  0
  5 30  1  0
  8 31  1  0
  8 32  1  0
 10 33  1  0
 12 34  1  0
 13 35  1  0
 17 36  1  0
 18 37  1  0
 19 38  1  0
 22 39  1  0
 22 40  1  0
M  END
>  <Energy>  (1528) 
122.38526837381914

>  <compound_id>  (1528) 
15915

>  <target_id>  (1528) 
1

>  <reference_id>  (1528) 
60

>  <inspiration_ids>  (1528) 
[60, 123]

>  <energy_score>  (1528) 
29.74371375015494

>  <distance_score>  (1528) 
15.058701059464981

>  <path>  (1528) 
/opt/xchem-fragalysis-2/maxwin/BulkDock/SCRATCH/511014/C15915-P60/C15915-P60.minimised.mol

>  <scratch_subdir>  (1528) 
/opt/xchem-fragalysis-2/maxwin/BulkDock/SCRATCH/511014/C15915-P60

>  <fragmenstein_runtime>  (1528) 
46.61164140701294

>  <fragmenstein_outcome>  (1528) 
too moved

>  <fragmenstein_mode>  (1528) 
expansion

>  <fragmenstein_error>  (1528) 


$$$$
C15915-P123
     RDKit          3D

 40 41  0  0  0  0  0  0  0  0999 V2000
    3.5746  -11.9041   22.7106 C   0  0  0  0  0  0  0  0  0  0  0  0
    3.6167  -12.6754   21.5801 N   0  0  0  0  0  0  0  0  0  0  0  0
    2.8488  -14.0370   22.9378 C   0  0  0  0  0  0  0  0  0  0  0  0
    0.7440  -14.3737   23.3804 C   0  0  0  0  0  0  0  0  0  0  0  0
   -0.7689  -14.0618   24.5715 N   0  0  0  0  0  0  0  0  0  0  0  0
   -2.1919  -14.9677   24.9206 C   0  0  0  0  0  0  0  0  0  0  0  0
   -2.6104  -15.9659   24.4404 O   0  0  0  0  0  0  0  0  0  0  0  0
   -2.9534  -14.3535   26.1639 C   0  0  0  0  0  0  0  0  0  0  0  0
   -3.8475  -15.4062   26.8826 C   0  0  0  0  0  0  0  0  0  0  0  0
   -5.0546  -16.0115   26.4188 C   0  0  0  0  0  0  0  0  0  0  0  0
   -5.5937  -16.8794   27.2849 N   0  0  0  0  0  0  0  0  0  0  0  0
   -4.7295  -16.8718   28.3126 N   0  0  0  0  0  0  0  0  0  0  0  0
   -3.6817  -16.0048   28.1232 C   0  0  0  0  0  0  0  0  0  0  0  0
    5.3482  -12.5123   20.6711 C   0  0  0  0  0  0  0  0  0  0  0  0
    6.0742  -13.3169   21.0622 O   0  0  0  0  0  0  0  0  0  0  0  0
    6.3391  -11.3272   19.4471 C   0  0  0  0  0  0  0  0  0  0  0  0
    7.8613  -11.6385   19.7140 C   0  0  0  0  0  0  0  0  0  0  0  0
    9.4785  -11.6138   18.6556 C   0  0  0  0  0  0  0  0  0  0  0  0
    9.9509  -10.7431   17.9181 C   0  0  0  0  0  0  0  0  0  0  0  0
    8.9613   -9.9813   18.3511 N   0  0  0  0  0  0  0  0  0  0  0  0
    7.5361  -10.4740   18.6579 C   0  0  0  0  0  0  0  0  0  0  0  0
    7.8515  -10.6949   17.0590 N   0  0  0  0  0  0  0  0  0  0  0  0
    4.2203  -11.0712   22.4969 H   0  0  0  0  0  0  0  0  0  0  0  0
    3.8775  -12.4119   23.5644 H   0  0  0  0  0  0  0  0  0  0  0  0
    2.5689  -11.7535   23.0898 H   0  0  0  0  0  0  0  0  0  0  0  0
    3.1787  -13.7631   23.9410 H   0  0  0  0  0  0  0  0  0  0  0  0
    3.3310  -14.9950   22.8350 H   0  0  0  0  0  0  0  0  0  0  0  0
   -0.0439  -13.7271   22.8816 H   0  0  0  0  0  0  0  0  0  0  0  0
    0.4255  -14.7851   22.3065 H   0  0  0  0  0  0  0  0  0  0  0  0
   -0.6680  -13.2973   25.2282 H   0  0  0  0  0  0  0  0  0  0  0  0
   -2.2293  -13.9476   26.8768 H   0  0  0  0  0  0  0  0  0  0  0  0
   -3.5918  -13.5380   25.8083 H   0  0  0  0  0  0  0  0  0  0  0  0
   -5.5512  -15.8460   25.4704 H   0  0  0  0  0  0  0  0  0  0  0  0
   -4.9168  -17.4742   29.1100 H   0  0  0  0  0  0  0  0  0  0  0  0
   -2.9163  -15.8992   28.8784 H   0  0  0  0  0  0  0  0  0  0  0  0
    7.9824  -12.4803   20.4734 H   0  0  0  0  0  0  0  0  0  0  0  0
   10.2943  -12.3756   18.9125 H   0  0  0  0  0  0  0  0  0  0  0  0
   10.8775  -10.5892   17.4214 H   0  0  0  0  0  0  0  0  0  0  0  0
    8.2352  -11.5825   16.7556 H   0  0  0  0  0  0  0  0  0  0  0  0
    8.5648  -10.0284   16.7971 H   0  0  0  0  0  0  0  0  0  0  0  0
  1  2  1  0
  2  3  1  0
  3  4  1  0
  4  5  1  0
  5  6  1  0
  6  7  2  0
  6  8  1  0
  8  9  1  0
  9 10  1  0
 10 11  2  0
 11 12  1  0
 12 13  1  0
  2 14  1  0
 14 15  2  0
 14 16  1  0
 16 17  2  0
 17 18  1  0
 18 19  2  0
 19 20  1  0
 20 21  2  0
 21 22  1  0
 13  9  2  0
 21 16  1  0
  1 23  1  0
  1 24  1  0
  1 25  1  0
  3 26  1  0
  3 27  1  0
  4 28  1  0
  4 29  1  0
  5 30  1  0
  8 31  1  0
  8 32  1  0
 10 33  1  0
 12 34  1  0
 13 35  1  0
 17 36  1  0
 18 37  1  0
 19 38  1  0
 22 39  1  0
 22 40  1  0
M  END
>  <Energy>  (1529) 
1153.0213855134778

>  <compound_id>  (1529) 
15915

>  <target_id>  (1529) 
1

>  <reference_id>  (1529) 
123

>  <inspiration_ids>  (1529) 
[60, 123]

>  <energy_score>  (1529) 
1060.379830889819

>  <distance_score>  (1529) 
12.174202643849405

>  <path>  (1529) 
/opt/xchem-fragalysis-2/maxwin/BulkDock/SCRATCH/511014/C15915-P123/C15915-P123.minimised.mol

>  <scratch_subdir>  (1529) 
/opt/xchem-fragalysis-2/maxwin/BulkDock/SCRATCH/511014/C15915-P123

>  <fragmenstein_runtime>  (1529) 
25.498180866241455

>  <fragmenstein_outcome>  (1529) 
too moved

>  <fragmenstein_mode>  (1529) 
expansion

>  <fragmenstein_error>  (1529) 


$$$$
C15916-P60
     RDKit          3D

 47 48  0  0  0  0  0  0  0  0999 V2000
   -5.8568  -17.2889   29.1146 C   0  0  0  0  0  0  0  0  0  0  0  0
   -4.9173  -16.2617   29.4207 C   0  0  0  0  0  0  0  0  0  0  0  0
   -6.0117  -14.8211   29.7884 C   0  0  0  0  0  0  0  0  0  0  0  0
   -3.5178  -16.2655   28.2246 C   0  0  0  0  0  0  0  0  0  0  0  0
   -2.5510  -15.2410   28.2216 C   0  0  0  0  0  0  0  0  0  0  0  0
   -1.3700  -15.7728   27.7772 C   0  0  0  0  0  0  0  0  0  0  0  0
   -1.0036  -17.3304   27.2489 C   0  0  0  0  0  0  0  0  0  0  0  0
    0.4474  -18.3305   27.5121 C   0  0  0  0  0  0  0  0  0  0  0  0
    0.5245  -19.1807   26.6838 O   0  0  0  0  0  0  0  0  0  0  0  0
    1.2713  -18.0916   28.6941 N   0  0  0  0  0  0  0  0  0  0  0  0
    2.3736  -18.8913   29.2802 C   0  0  0  0  0  0  0  0  0  0  0  0
    2.4507  -17.1425   28.3509 C   0  0  0  0  0  0  0  0  0  0  0  0
    3.6514  -17.5723   27.4194 C   0  0  0  0  0  0  0  0  0  0  0  0
    4.5469  -16.4907   27.0395 N   0  0  0  0  0  0  0  0  0  0  0  0
    5.1202  -15.4233   27.8154 C   0  0  0  0  0  0  0  0  0  0  0  0
    4.9444  -15.1052   28.9567 O   0  0  0  0  0  0  0  0  0  0  0  0
    6.1236  -14.6178   26.9635 C   0  0  0  0  0  0  0  0  0  0  0  0
    5.4705  -13.7853   25.9097 C   0  0  0  0  0  0  0  0  0  0  0  0
    5.7392  -13.7743   24.5224 C   0  0  0  0  0  0  0  0  0  0  0  0
    4.9338  -12.9512   23.8482 N   0  0  0  0  0  0  0  0  0  0  0  0
    4.1448  -12.4243   24.8002 N   0  0  0  0  0  0  0  0  0  0  0  0
    4.4474  -12.8702   26.0538 C   0  0  0  0  0  0  0  0  0  0  0  0
   -2.0968  -17.7814   26.6992 C   0  0  0  0  0  0  0  0  0  0  0  0
   -3.2581  -17.2800   27.2809 N   0  0  0  0  0  0  0  0  0  0  0  0
   -6.1899  -17.8984   29.9403 H   0  0  0  0  0  0  0  0  0  0  0  0
   -5.4438  -17.8747   28.3085 H   0  0  0  0  0  0  0  0  0  0  0  0
   -6.8135  -16.9685   28.5928 H   0  0  0  0  0  0  0  0  0  0  0  0
   -4.0495  -16.0743   30.0055 H   0  0  0  0  0  0  0  0  0  0  0  0
   -6.3640  -14.9007   30.7931 H   0  0  0  0  0  0  0  0  0  0  0  0
   -5.5590  -13.8166   29.9167 H   0  0  0  0  0  0  0  0  0  0  0  0
   -6.7273  -14.7040   28.9611 H   0  0  0  0  0  0  0  0  0  0  0  0
   -2.5455  -14.5485   29.0501 H   0  0  0  0  0  0  0  0  0  0  0  0
   -0.6460  -15.4535   28.4814 H   0  0  0  0  0  0  0  0  0  0  0  0
    2.8651  -19.5436   28.5481 H   0  0  0  0  0  0  0  0  0  0  0  0
    3.0218  -18.4327   30.0414 H   0  0  0  0  0  0  0  0  0  0  0  0
    1.8196  -19.6342   29.8760 H   0  0  0  0  0  0  0  0  0  0  0  0
    1.9843  -16.3084   27.8461 H   0  0  0  0  0  0  0  0  0  0  0  0
    2.8142  -16.6568   29.2715 H   0  0  0  0  0  0  0  0  0  0  0  0
    4.3132  -18.2912   27.9114 H   0  0  0  0  0  0  0  0  0  0  0  0
    3.2778  -18.0321   26.4999 H   0  0  0  0  0  0  0  0  0  0  0  0
    4.9909  -16.5118   26.1270 H   0  0  0  0  0  0  0  0  0  0  0  0
    6.8427  -15.3172   26.5200 H   0  0  0  0  0  0  0  0  0  0  0  0
    6.6960  -13.9664   27.6353 H   0  0  0  0  0  0  0  0  0  0  0  0
    6.4808  -14.3416   23.9734 H   0  0  0  0  0  0  0  0  0  0  0  0
    3.4119  -11.7781   24.5225 H   0  0  0  0  0  0  0  0  0  0  0  0
    3.8944  -12.5295   26.9185 H   0  0  0  0  0  0  0  0  0  0  0  0
   -2.1260  -18.6957   26.1378 H   0  0  0  0  0  0  0  0  0  0  0  0
  1  2  1  0
  2  3  1  0
  2  4  1  0
  4  5  2  0
  5  6  1  0
  6  7  2  0
  7  8  1  0
  8  9  2  0
  8 10  1  0
 10 11  1  0
 10 12  1  0
 12 13  1  0
 13 14  1  0
 14 15  1  0
 15 16  2  0
 15 17  1  0
 17 18  1  0
 18 19  1  0
 19 20  2  0
 20 21  1  0
 21 22  1  0
  7 23  1  0
 23 24  2  0
 24  4  1  0
 22 18  2  0
  1 25  1  0
  1 26  1  0
  1 27  1  0
  2 28  1  0
  3 29  1  0
  3 30  1  0
  3 31  1  0
  5 32  1  0
  6 33  1  0
 11 34  1  0
 11 35  1  0
 11 36  1  0
 12 37  1  0
 12 38  1  0
 13 39  1  0
 13 40  1  0
 14 41  1  0
 17 42  1  0
 17 43  1  0
 19 44  1  0
 21 45  1  0
 22 46  1  0
 23 47  1  0
M  END
>  <Energy>  (1530) 
333.26888983466392

>  <compound_id>  (1530) 
15916

>  <target_id>  (1530) 
1

>  <reference_id>  (1530) 
60

>  <inspiration_ids>  (1530) 
[60, 123]

>  <energy_score>  (1530) 
258.5605949515092

>  <distance_score>  (1530) 
15.982300763704298

>  <path>  (1530) 
/opt/xchem-fragalysis-2/maxwin/BulkDock/SCRATCH/511014/C15916-P60/C15916-P60.minimised.mol

>  <scratch_subdir>  (1530) 
/opt/xchem-fragalysis-2/maxwin/BulkDock/SCRATCH/511014/C15916-P60

>  <fragmenstein_runtime>  (1530) 
37.454952239990234

>  <fragmenstein_outcome>  (1530) 
too moved

>  <fragmenstein_mode>  (1530) 
expansion

>  <fragmenstein_error>  (1530) 


$$$$
C15916-P123
     RDKit          3D

 47 48  0  0  0  0  0  0  0  0999 V2000
   -4.6201  -20.5768   25.4728 C   0  0  0  0  0  0  0  0  0  0  0  0
   -2.9339  -19.5636   25.4863 C   0  0  0  0  0  0  0  0  0  0  0  0
   -2.3301  -20.6157   23.8895 C   0  0  0  0  0  0  0  0  0  0  0  0
   -2.3558  -17.9322   26.4569 C   0  0  0  0  0  0  0  0  0  0  0  0
   -2.3664  -17.2825   25.3346 C   0  0  0  0  0  0  0  0  0  0  0  0
   -2.3608  -15.7298   24.4189 C   0  0  0  0  0  0  0  0  0  0  0  0
   -1.3476  -14.8472   24.3372 C   0  0  0  0  0  0  0  0  0  0  0  0
   -0.2681  -14.3455   22.6969 C   0  0  0  0  0  0  0  0  0  0  0  0
   -0.7797  -14.8156   21.7112 O   0  0  0  0  0  0  0  0  0  0  0  0
    1.2210  -13.5659   22.5632 N   0  0  0  0  0  0  0  0  0  0  0  0
    2.1808  -13.4059   21.3935 C   0  0  0  0  0  0  0  0  0  0  0  0
    1.0423  -12.0425   22.2804 C   0  0  0  0  0  0  0  0  0  0  0  0
    1.9770  -11.0827   23.1081 C   0  0  0  0  0  0  0  0  0  0  0  0
    3.3673  -10.9410   22.7279 N   0  0  0  0  0  0  0  0  0  0  0  0
    4.5362  -11.6816   23.1289 C   0  0  0  0  0  0  0  0  0  0  0  0
    4.6466  -12.6541   23.8179 O   0  0  0  0  0  0  0  0  0  0  0  0
    5.7958  -11.0351   22.5389 C   0  0  0  0  0  0  0  0  0  0  0  0
    6.4438  -10.1083   23.5102 C   0  0  0  0  0  0  0  0  0  0  0  0
    7.6229  -10.3406   24.2552 C   0  0  0  0  0  0  0  0  0  0  0  0
    7.9796   -9.2835   24.9882 N   0  0  0  0  0  0  0  0  0  0  0  0
    6.9609   -8.4216   24.8257 N   0  0  0  0  0  0  0  0  0  0  0  0
    6.0390   -8.8508   23.9119 C   0  0  0  0  0  0  0  0  0  0  0  0
   -2.1389  -14.9491   25.6550 C   0  0  0  0  0  0  0  0  0  0  0  0
   -2.4295  -16.4942   26.6823 N   0  0  0  0  0  0  0  0  0  0  0  0
   -5.3765  -19.8673   25.8093 H   0  0  0  0  0  0  0  0  0  0  0  0
   -4.7755  -21.4631   26.1086 H   0  0  0  0  0  0  0  0  0  0  0  0
   -4.7068  -21.1250   24.5287 H   0  0  0  0  0  0  0  0  0  0  0  0
   -3.8373  -19.3718   24.8441 H   0  0  0  0  0  0  0  0  0  0  0  0
   -1.8620  -21.5955   24.0471 H   0  0  0  0  0  0  0  0  0  0  0  0
   -3.1782  -21.0221   23.3518 H   0  0  0  0  0  0  0  0  0  0  0  0
   -1.6461  -20.0795   23.2156 H   0  0  0  0  0  0  0  0  0  0  0  0
   -1.2937  -17.6820   25.5310 H   0  0  0  0  0  0  0  0  0  0  0  0
   -3.2631  -15.5521   23.8112 H   0  0  0  0  0  0  0  0  0  0  0  0
    1.6541  -13.7062   20.4767 H   0  0  0  0  0  0  0  0  0  0  0  0
    2.9715  -14.1472   21.5529 H   0  0  0  0  0  0  0  0  0  0  0  0
    2.8078  -12.5290   21.2041 H   0  0  0  0  0  0  0  0  0  0  0  0
    1.0954  -11.7276   21.2127 H   0  0  0  0  0  0  0  0  0  0  0  0
    0.0037  -11.7882   22.3165 H   0  0  0  0  0  0  0  0  0  0  0  0
    1.5752  -10.0712   23.0024 H   0  0  0  0  0  0  0  0  0  0  0  0
    2.0059  -11.3628   24.1628 H   0  0  0  0  0  0  0  0  0  0  0  0
    3.6576  -10.1214   22.2080 H   0  0  0  0  0  0  0  0  0  0  0  0
    6.4832  -11.8442   22.2616 H   0  0  0  0  0  0  0  0  0  0  0  0
    5.5661  -10.5071   21.6063 H   0  0  0  0  0  0  0  0  0  0  0  0
    8.2508  -11.2240   24.2665 H   0  0  0  0  0  0  0  0  0  0  0  0
    6.9794   -7.5464   25.3423 H   0  0  0  0  0  0  0  0  0  0  0  0
    5.1911   -8.2343   23.6504 H   0  0  0  0  0  0  0  0  0  0  0  0
   -2.5492  -14.1404   26.1924 H   0  0  0  0  0  0  0  0  0  0  0  0
  1  2  1  0
  2  3  1  0
  2  4  1  0
  4  5  2  0
  5  6  1  0
  6  7  2  0
  7  8  1  0
  8  9  2  0
  8 10  1  0
 10 11  1  0
 10 12  1  0
 12 13  1  0
 13 14  1  0
 14 15  1  0
 15 16  2  0
 15 17  1  0
 17 18  1  0
 18 19  1  0
 19 20  2  0
 20 21  1  0
 21 22  1  0
  7 23  1  0
 23 24  2  0
 24  4  1  0
 22 18  2  0
  1 25  1  0
  1 26  1  0
  1 27  1  0
  2 28  1  0
  3 29  1  0
  3 30  1  0
  3 31  1  0
  5 32  1  0
  6 33  1  0
 11 34  1  0
 11 35  1  0
 11 36  1  0
 12 37  1  0
 12 38  1  0
 13 39  1  0
 13 40  1  0
 14 41  1  0
 17 42  1  0
 17 43  1  0
 19 44  1  0
 21 45  1  0
 22 46  1  0
 23 47  1  0
M  END
>  <Energy>  (1531) 
998.55661662264185

>  <compound_id>  (1531) 
15916

>  <target_id>  (1531) 
1

>  <reference_id>  (1531) 
123

>  <inspiration_ids>  (1531) 
[60, 123]

>  <energy_score>  (1531) 
923.8483217394838

>  <distance_score>  (1531) 
13.467980909794658

>  <path>  (1531) 
/opt/xchem-fragalysis-2/maxwin/BulkDock/SCRATCH/511014/C15916-P123/C15916-P123.minimised.mol

>  <scratch_subdir>  (1531) 
/opt/xchem-fragalysis-2/maxwin/BulkDock/SCRATCH/511014/C15916-P123

>  <fragmenstein_runtime>  (1531) 
26.747150659561157

>  <fragmenstein_outcome>  (1531) 
too moved

>  <fragmenstein_mode>  (1531) 
expansion

>  <fragmenstein_error>  (1531) 


$$$$
C15923-P60
     RDKit          3D

 36 37  0  0  0  0  0  0  0  0999 V2000
   -2.3229  -18.5007   15.0073 C   0  0  0  0  0  0  0  0  0  0  0  0
   -3.2461  -17.4055   15.2837 N   0  0  0  0  0  0  0  0  0  0  0  0
   -3.7750  -17.5327   16.7184 C   0  0  0  0  0  0  0  0  0  0  0  0
   -4.8567  -18.6329   16.9400 C   0  0  0  0  0  0  0  0  0  0  0  0
   -5.1278  -19.1011   18.3109 N   0  0  0  0  0  0  0  0  0  0  0  0
   -5.2338  -18.3812   19.5505 C   0  0  0  0  0  0  0  0  0  0  0  0
   -5.0503  -17.2262   19.7993 O   0  0  0  0  0  0  0  0  0  0  0  0
   -5.6965  -19.2379   20.6920 C   0  0  0  0  0  0  0  0  0  0  0  0
   -5.8772  -18.8083   22.0455 C   0  0  0  0  0  0  0  0  0  0  0  0
   -6.3053  -19.7683   22.8706 N   0  0  0  0  0  0  0  0  0  0  0  0
   -6.4400  -20.8316   22.0632 N   0  0  0  0  0  0  0  0  0  0  0  0
   -6.0812  -20.5703   20.7631 C   0  0  0  0  0  0  0  0  0  0  0  0
   -2.6390  -16.0342   15.0067 C   0  0  0  0  0  0  0  0  0  0  0  0
   -1.7157  -15.6701   13.7813 C   0  0  0  0  0  0  0  0  0  0  0  0
   -0.5262  -16.3258   13.4850 C   0  0  0  0  0  0  0  0  0  0  0  0
    0.3054  -15.8659   12.4443 C   0  0  0  0  0  0  0  0  0  0  0  0
    0.0115  -14.6874   11.7828 C   0  0  0  0  0  0  0  0  0  0  0  0
   -1.1500  -14.0533   12.1487 C   0  0  0  0  0  0  0  0  0  0  0  0
   -2.0228  -14.5407   13.0733 N   0  0  0  0  0  0  0  0  0  0  0  0
   -2.7759  -19.4729   15.2247 H   0  0  0  0  0  0  0  0  0  0  0  0
   -2.0765  -18.5399   13.9421 H   0  0  0  0  0  0  0  0  0  0  0  0
   -1.4027  -18.4285   15.5953 H   0  0  0  0  0  0  0  0  0  0  0  0
   -4.2383  -16.5782   16.9871 H   0  0  0  0  0  0  0  0  0  0  0  0
   -2.9349  -17.6872   17.4053 H   0  0  0  0  0  0  0  0  0  0  0  0
   -4.5975  -19.5395   16.3858 H   0  0  0  0  0  0  0  0  0  0  0  0
   -5.8126  -18.2768   16.5393 H   0  0  0  0  0  0  0  0  0  0  0  0
   -5.4373  -20.0515   18.4549 H   0  0  0  0  0  0  0  0  0  0  0  0
   -5.6990  -17.8164   22.4428 H   0  0  0  0  0  0  0  0  0  0  0  0
   -6.7874  -21.7027   22.4556 H   0  0  0  0  0  0  0  0  0  0  0  0
   -6.1513  -21.3558   20.0253 H   0  0  0  0  0  0  0  0  0  0  0  0
   -3.5137  -15.3777   14.9066 H   0  0  0  0  0  0  0  0  0  0  0  0
   -2.1159  -15.6691   15.8902 H   0  0  0  0  0  0  0  0  0  0  0  0
   -0.1934  -17.1764   14.0666 H   0  0  0  0  0  0  0  0  0  0  0  0
    1.2208  -16.4061   12.2195 H   0  0  0  0  0  0  0  0  0  0  0  0
    0.6571  -14.2894   11.0117 H   0  0  0  0  0  0  0  0  0  0  0  0
   -1.4538  -13.1237   11.6777 H   0  0  0  0  0  0  0  0  0  0  0  0
  1  2  1  0
  2  3  1  0
  3  4  1  0
  4  5  1  0
  5  6  1  0
  6  7  2  0
  6  8  1  0
  8  9  1  0
  9 10  2  0
 10 11  1  0
 11 12  1  0
  2 13  1  0
 13 14  1  0
 14 15  2  0
 15 16  1  0
 16 17  2  0
 17 18  1  0
 18 19  2  0
 12  8  2  0
 19 14  1  0
  1 20  1  0
  1 21  1  0
  1 22  1  0
  3 23  1  0
  3 24  1  0
  4 25  1  0
  4 26  1  0
  5 27  1  0
  9 28  1  0
 11 29  1  0
 12 30  1  0
 13 31  1  0
 13 32  1  0
 15 33  1  0
 16 34  1  0
 17 35  1  0
 18 36  1  0
M  END
>  <Energy>  (1532) 
68.399986665365674

>  <compound_id>  (1532) 
15923

>  <target_id>  (1532) 
1

>  <reference_id>  (1532) 
60

>  <inspiration_ids>  (1532) 
[60, 123]

>  <energy_score>  (1532) 
-10.939316033926161

>  <distance_score>  (1532) 
16.124294635829504

>  <path>  (1532) 
/opt/xchem-fragalysis-2/maxwin/BulkDock/SCRATCH/511014/C15923-P60/C15923-P60.minimised.mol

>  <scratch_subdir>  (1532) 
/opt/xchem-fragalysis-2/maxwin/BulkDock/SCRATCH/511014/C15923-P60

>  <fragmenstein_runtime>  (1532) 
32.29371476173401

>  <fragmenstein_outcome>  (1532) 
too moved

>  <fragmenstein_mode>  (1532) 
expansion

>  <fragmenstein_error>  (1532) 


$$$$
C15923-P123
     RDKit          3D

 36 37  0  0  0  0  0  0  0  0999 V2000
   -1.3395  -12.2571   18.2549 C   0  0  0  0  0  0  0  0  0  0  0  0
   -0.3366  -13.4251   17.6893 N   0  0  0  0  0  0  0  0  0  0  0  0
   -1.6643  -14.4188   17.1398 C   0  0  0  0  0  0  0  0  0  0  0  0
   -2.6447  -15.7896   16.7180 C   0  0  0  0  0  0  0  0  0  0  0  0
   -3.0535  -16.7526   17.8138 N   0  0  0  0  0  0  0  0  0  0  0  0
   -4.3040  -17.4416   18.0537 C   0  0  0  0  0  0  0  0  0  0  0  0
   -5.3057  -17.4865   17.4018 O   0  0  0  0  0  0  0  0  0  0  0  0
   -4.3940  -18.1353   19.3943 C   0  0  0  0  0  0  0  0  0  0  0  0
   -3.5977  -18.1239   20.5749 C   0  0  0  0  0  0  0  0  0  0  0  0
   -4.1257  -18.8022   21.6063 N   0  0  0  0  0  0  0  0  0  0  0  0
   -5.2574  -19.3116   21.0973 N   0  0  0  0  0  0  0  0  0  0  0  0
   -5.4684  -18.9289   19.8036 C   0  0  0  0  0  0  0  0  0  0  0  0
    1.5703  -13.7977   17.8045 C   0  0  0  0  0  0  0  0  0  0  0  0
    3.2061  -12.5436   17.8967 C   0  0  0  0  0  0  0  0  0  0  0  0
    3.5156  -11.5077   16.9012 C   0  0  0  0  0  0  0  0  0  0  0  0
    3.4421   -9.7860   17.0620 C   0  0  0  0  0  0  0  0  0  0  0  0
    2.6336   -8.8232   17.5761 C   0  0  0  0  0  0  0  0  0  0  0  0
    2.2765   -9.7226   18.3220 C   0  0  0  0  0  0  0  0  0  0  0  0
    2.8414  -11.3472   18.0392 N   0  0  0  0  0  0  0  0  0  0  0  0
   -1.5420  -12.1546   19.3348 H   0  0  0  0  0  0  0  0  0  0  0  0
   -1.2474  -11.2376   17.9228 H   0  0  0  0  0  0  0  0  0  0  0  0
   -2.3271  -12.4858   17.8622 H   0  0  0  0  0  0  0  0  0  0  0  0
   -1.2374  -14.5110   16.1492 H   0  0  0  0  0  0  0  0  0  0  0  0
   -1.4692  -14.9171   18.0808 H   0  0  0  0  0  0  0  0  0  0  0  0
   -3.5782  -15.3715   16.3200 H   0  0  0  0  0  0  0  0  0  0  0  0
   -2.2075  -16.3698   15.8955 H   0  0  0  0  0  0  0  0  0  0  0  0
   -2.4527  -16.8700   18.6178 H   0  0  0  0  0  0  0  0  0  0  0  0
   -2.6527  -17.6216   20.7372 H   0  0  0  0  0  0  0  0  0  0  0  0
   -5.8406  -19.8997   21.6855 H   0  0  0  0  0  0  0  0  0  0  0  0
   -6.3604  -19.2313   19.2713 H   0  0  0  0  0  0  0  0  0  0  0  0
    1.9521  -14.7496   18.1944 H   0  0  0  0  0  0  0  0  0  0  0  0
    1.5012  -13.9886   16.7572 H   0  0  0  0  0  0  0  0  0  0  0  0
    3.8513  -11.6831   15.8730 H   0  0  0  0  0  0  0  0  0  0  0  0
    4.3412   -9.5628   17.7436 H   0  0  0  0  0  0  0  0  0  0  0  0
    2.7391   -7.8962   18.0245 H   0  0  0  0  0  0  0  0  0  0  0  0
    1.8517   -9.4393   19.2725 H   0  0  0  0  0  0  0  0  0  0  0  0
  1  2  1  0
  2  3  1  0
  3  4  1  0
  4  5  1  0
  5  6  1  0
  6  7  2  0
  6  8  1  0
  8  9  1  0
  9 10  2  0
 10 11  1  0
 11 12  1  0
  2 13  1  0
 13 14  1  0
 14 15  2  0
 15 16  1  0
 16 17  2  0
 17 18  1  0
 18 19  2  0
 12  8  2  0
 19 14  1  0
  1 20  1  0
  1 21  1  0
  1 22  1  0
  3 23  1  0
  3 24  1  0
  4 25  1  0
  4 26  1  0
  5 27  1  0
  9 28  1  0
 11 29  1  0
 12 30  1  0
 13 31  1  0
 13 32  1  0
 15 33  1  0
 16 34  1  0
 17 35  1  0
 18 36  1  0
M  END
>  <Energy>  (1533) 
738.56250460582646

>  <compound_id>  (1533) 
15923

>  <target_id>  (1533) 
1

>  <reference_id>  (1533) 
123

>  <inspiration_ids>  (1533) 
[60, 123]

>  <energy_score>  (1533) 
659.2232019065393

>  <distance_score>  (1533) 
14.813081913601252

>  <path>  (1533) 
/opt/xchem-fragalysis-2/maxwin/BulkDock/SCRATCH/511014/C15923-P123/C15923-P123.minimised.mol

>  <scratch_subdir>  (1533) 
/opt/xchem-fragalysis-2/maxwin/BulkDock/SCRATCH/511014/C15923-P123

>  <fragmenstein_runtime>  (1533) 
38.69956636428833

>  <fragmenstein_outcome>  (1533) 
too moved

>  <fragmenstein_mode>  (1533) 
expansion

>  <fragmenstein_error>  (1533) 


$$$$
C15925-P60
     RDKit          3D

 36 37  0  0  0  0  0  0  0  0999 V2000
   -3.1492  -15.4607   18.2885 C   0  0  0  0  0  0  0  0  0  0  0  0
   -4.1573  -14.7880   19.1099 N   0  0  0  0  0  0  0  0  0  0  0  0
   -5.3666  -15.6733   19.3154 C   0  0  0  0  0  0  0  0  0  0  0  0
   -5.1713  -17.0282   20.0626 C   0  0  0  0  0  0  0  0  0  0  0  0
   -5.1957  -17.0532   21.5224 N   0  0  0  0  0  0  0  0  0  0  0  0
   -6.2023  -16.6316   22.4546 C   0  0  0  0  0  0  0  0  0  0  0  0
   -7.2457  -16.0787   22.2766 O   0  0  0  0  0  0  0  0  0  0  0  0
   -5.9100  -17.0549   23.8532 C   0  0  0  0  0  0  0  0  0  0  0  0
   -6.6056  -16.6342   25.0273 C   0  0  0  0  0  0  0  0  0  0  0  0
   -6.1901  -17.2405   26.1460 N   0  0  0  0  0  0  0  0  0  0  0  0
   -5.2284  -18.0655   25.7127 N   0  0  0  0  0  0  0  0  0  0  0  0
   -5.0177  -17.9889   24.3586 C   0  0  0  0  0  0  0  0  0  0  0  0
   -4.5180  -13.4832   18.4321 C   0  0  0  0  0  0  0  0  0  0  0  0
   -3.5206  -12.2823   18.4992 C   0  0  0  0  0  0  0  0  0  0  0  0
   -2.7440  -12.0574   19.6233 C   0  0  0  0  0  0  0  0  0  0  0  0
   -2.1380  -10.8298   19.8644 C   0  0  0  0  0  0  0  0  0  0  0  0
   -2.2275   -9.8607   18.9048 C   0  0  0  0  0  0  0  0  0  0  0  0
   -1.6209   -8.6932   19.0522 F   0  0  0  0  0  0  0  0  0  0  0  0
   -2.9668  -10.1324   17.7931 C   0  0  0  0  0  0  0  0  0  0  0  0
   -3.6209  -11.3087   17.5636 N   0  0  0  0  0  0  0  0  0  0  0  0
   -3.5581  -15.8161   17.3361 H   0  0  0  0  0  0  0  0  0  0  0  0
   -2.7161  -16.3095   18.8249 H   0  0  0  0  0  0  0  0  0  0  0  0
   -2.3198  -14.7836   18.0671 H   0  0  0  0  0  0  0  0  0  0  0  0
   -5.7686  -15.9062   18.3197 H   0  0  0  0  0  0  0  0  0  0  0  0
   -6.1482  -15.1039   19.8306 H   0  0  0  0  0  0  0  0  0  0  0  0
   -6.0067  -17.6738   19.7644 H   0  0  0  0  0  0  0  0  0  0  0  0
   -4.2584  -17.5389   19.7456 H   0  0  0  0  0  0  0  0  0  0  0  0
   -4.4039  -17.4165   22.0347 H   0  0  0  0  0  0  0  0  0  0  0  0
   -7.4131  -15.9136   25.0879 H   0  0  0  0  0  0  0  0  0  0  0  0
   -4.7537  -18.6518   26.3927 H   0  0  0  0  0  0  0  0  0  0  0  0
   -4.2850  -18.6301   23.8909 H   0  0  0  0  0  0  0  0  0  0  0  0
   -5.4299  -13.1050   18.9110 H   0  0  0  0  0  0  0  0  0  0  0  0
   -4.7693  -13.6671   17.3796 H   0  0  0  0  0  0  0  0  0  0  0  0
   -2.6262  -12.8578   20.3253 H   0  0  0  0  0  0  0  0  0  0  0  0
   -1.5748  -10.6366   20.7675 H   0  0  0  0  0  0  0  0  0  0  0  0
   -3.1727   -9.3542   17.0751 H   0  0  0  0  0  0  0  0  0  0  0  0
  1  2  1  0
  2  3  1  0
  3  4  1  0
  4  5  1  0
  5  6  1  0
  6  7  2  0
  6  8  1  0
  8  9  1  0
  9 10  2  0
 10 11  1  0
 11 12  1  0
  2 13  1  0
 13 14  1  0
 14 15  2  0
 15 16  1  0
 16 17  2  0
 17 18  1  0
 17 19  1  0
 19 20  2  0
 12  8  2  0
 20 14  1  0
  1 21  1  0
  1 22  1  0
  1 23  1  0
  3 24  1  0
  3 25  1  0
  4 26  1  0
  4 27  1  0
  5 28  1  0
  9 29  1  0
 11 30  1  0
 12 31  1  0
 13 32  1  0
 13 33  1  0
 15 34  1  0
 16 35  1  0
 19 36  1  0
M  END
>  <Energy>  (1534) 
70.851078104426463

>  <compound_id>  (1534) 
15925

>  <target_id>  (1534) 
1

>  <reference_id>  (1534) 
60

>  <inspiration_ids>  (1534) 
[60, 123]

>  <energy_score>  (1534) 
-16.931826232032904

>  <distance_score>  (1534) 
14.929244650023406

>  <path>  (1534) 
/opt/xchem-fragalysis-2/maxwin/BulkDock/SCRATCH/511014/C15925-P60/C15925-P60.minimised.mol

>  <scratch_subdir>  (1534) 
/opt/xchem-fragalysis-2/maxwin/BulkDock/SCRATCH/511014/C15925-P60

>  <fragmenstein_runtime>  (1534) 
35.8124680519104

>  <fragmenstein_outcome>  (1534) 
too moved

>  <fragmenstein_mode>  (1534) 
expansion

>  <fragmenstein_error>  (1534) 


$$$$
C15925-P123
     RDKit          3D

 36 37  0  0  0  0  0  0  0  0999 V2000
   -2.2622  -10.9073   20.4781 C   0  0  0  0  0  0  0  0  0  0  0  0
   -2.7087  -12.2252   19.9586 N   0  0  0  0  0  0  0  0  0  0  0  0
   -4.3165  -12.0363   20.0000 C   0  0  0  0  0  0  0  0  0  0  0  0
   -5.9346  -12.8827   20.0648 C   0  0  0  0  0  0  0  0  0  0  0  0
   -6.4184  -14.0680   20.8181 N   0  0  0  0  0  0  0  0  0  0  0  0
   -7.2797  -14.1667   21.9870 C   0  0  0  0  0  0  0  0  0  0  0  0
   -7.7494  -13.3149   22.6815 O   0  0  0  0  0  0  0  0  0  0  0  0
   -7.6188  -15.5611   22.3824 C   0  0  0  0  0  0  0  0  0  0  0  0
   -8.6388  -15.9300   23.3186 C   0  0  0  0  0  0  0  0  0  0  0  0
   -8.7645  -17.2497   23.4834 N   0  0  0  0  0  0  0  0  0  0  0  0
   -7.7783  -17.7487   22.7233 N   0  0  0  0  0  0  0  0  0  0  0  0
   -7.0752  -16.7874   22.0405 C   0  0  0  0  0  0  0  0  0  0  0  0
   -2.0544  -12.5819   18.5207 C   0  0  0  0  0  0  0  0  0  0  0  0
   -0.5289  -12.2442   18.1748 C   0  0  0  0  0  0  0  0  0  0  0  0
   -0.9719  -10.3893   18.1172 C   0  0  0  0  0  0  0  0  0  0  0  0
    0.6251   -9.2298   17.9945 C   0  0  0  0  0  0  0  0  0  0  0  0
    2.3293  -10.0237   17.9389 C   0  0  0  0  0  0  0  0  0  0  0  0
    3.2477   -9.0846   17.8740 F   0  0  0  0  0  0  0  0  0  0  0  0
    2.8321  -11.8846   18.0695 C   0  0  0  0  0  0  0  0  0  0  0  0
    1.2494  -13.1300   18.1783 N   0  0  0  0  0  0  0  0  0  0  0  0
   -1.2147  -10.8826   20.7382 H   0  0  0  0  0  0  0  0  0  0  0  0
   -2.7443  -10.6488   21.4171 H   0  0  0  0  0  0  0  0  0  0  0  0
   -2.5635  -10.0655   19.8551 H   0  0  0  0  0  0  0  0  0  0  0  0
   -4.3746  -11.5851   19.0070 H   0  0  0  0  0  0  0  0  0  0  0  0
   -4.4818  -11.2180   20.6874 H   0  0  0  0  0  0  0  0  0  0  0  0
   -6.2734  -13.0132   19.0290 H   0  0  0  0  0  0  0  0  0  0  0  0
   -6.5946  -12.1508   20.5477 H   0  0  0  0  0  0  0  0  0  0  0  0
   -6.2813  -14.9962   20.4275 H   0  0  0  0  0  0  0  0  0  0  0  0
   -9.3005  -15.2628   23.8590 H   0  0  0  0  0  0  0  0  0  0  0  0
   -7.6474  -18.7557   22.6974 H   0  0  0  0  0  0  0  0  0  0  0  0
   -6.2598  -17.0727   21.3924 H   0  0  0  0  0  0  0  0  0  0  0  0
   -2.0270  -13.6129   18.2122 H   0  0  0  0  0  0  0  0  0  0  0  0
   -2.6668  -12.0589   17.7804 H   0  0  0  0  0  0  0  0  0  0  0  0
   -1.9590   -9.9549   18.0182 H   0  0  0  0  0  0  0  0  0  0  0  0
    0.4545   -8.2346   17.6565 H   0  0  0  0  0  0  0  0  0  0  0  0
    3.7531  -12.4313   18.0658 H   0  0  0  0  0  0  0  0  0  0  0  0
  1  2  1  0
  2  3  1  0
  3  4  1  0
  4  5  1  0
  5  6  1  0
  6  7  2  0
  6  8  1  0
  8  9  1  0
  9 10  2  0
 10 11  1  0
 11 12  1  0
  2 13  1  0
 13 14  1  0
 14 15  2  0
 15 16  1  0
 16 17  2  0
 17 18  1  0
 17 19  1  0
 19 20  2  0
 12  8  2  0
 20 14  1  0
  1 21  1  0
  1 22  1  0
  1 23  1  0
  3 24  1  0
  3 25  1  0
  4 26  1  0
  4 27  1  0
  5 28  1  0
  9 29  1  0
 11 30  1  0
 12 31  1  0
 13 32  1  0
 13 33  1  0
 15 34  1  0
 16 35  1  0
 19 36  1  0
M  END
>  <Energy>  (1535) 
760.36240148745856

>  <compound_id>  (1535) 
15925

>  <target_id>  (1535) 
1

>  <reference_id>  (1535) 
123

>  <inspiration_ids>  (1535) 
[60, 123]

>  <energy_score>  (1535) 
672.5794971509995

>  <distance_score>  (1535) 
14.263020760178913

>  <path>  (1535) 
/opt/xchem-fragalysis-2/maxwin/BulkDock/SCRATCH/511014/C15925-P123/C15925-P123.minimised.mol

>  <scratch_subdir>  (1535) 
/opt/xchem-fragalysis-2/maxwin/BulkDock/SCRATCH/511014/C15925-P123

>  <fragmenstein_runtime>  (1535) 
27.74838423728943

>  <fragmenstein_outcome>  (1535) 
too moved

>  <fragmenstein_mode>  (1535) 
expansion

>  <fragmenstein_error>  (1535) 


$$$$
C15930-P60
     RDKit          3D

 39 40  0  0  0  0  0  0  0  0999 V2000
    6.7566   -4.9371   24.8086 C   0  0  0  0  0  0  0  0  0  0  0  0
    5.7212   -5.1110   23.8362 O   0  0  0  0  0  0  0  0  0  0  0  0
    5.6298   -6.4877   23.4382 C   0  0  0  0  0  0  0  0  0  0  0  0
    4.2189   -6.8904   22.5776 C   0  0  0  0  0  0  0  0  0  0  0  0
    3.6817   -5.4877   22.0219 C   0  0  0  0  0  0  0  0  0  0  0  0
    3.9963   -4.5005   21.6971 N   0  0  0  0  0  0  0  0  0  0  0  0
    2.0839   -5.4353   21.7766 O   0  0  0  0  0  0  0  0  0  0  0  0
    3.0120   -8.3449   23.0087 N   0  0  0  0  0  0  0  0  0  0  0  0
    3.2551   -7.1117   24.2280 C   0  0  0  0  0  0  0  0  0  0  0  0
    3.3363  -10.3089   23.0839 C   0  0  0  0  0  0  0  0  0  0  0  0
    4.4630  -10.8181   22.7279 O   0  0  0  0  0  0  0  0  0  0  0  0
    2.1268  -11.7832   23.9177 C   0  0  0  0  0  0  0  0  0  0  0  0
    1.3374  -11.6772   25.5306 C   0  0  0  0  0  0  0  0  0  0  0  0
    0.5125  -12.1445   26.8657 C   0  0  0  0  0  0  0  0  0  0  0  0
    0.7389  -13.3847   27.1219 C   0  0  0  0  0  0  0  0  0  0  0  0
    0.2417  -14.0712   28.3287 C   0  0  0  0  0  0  0  0  0  0  0  0
    0.7867  -15.0142   29.2422 C   0  0  0  0  0  0  0  0  0  0  0  0
   -0.1226  -15.5532   30.0684 N   0  0  0  0  0  0  0  0  0  0  0  0
   -1.2760  -14.9930   29.6796 N   0  0  0  0  0  0  0  0  0  0  0  0
   -1.1111  -14.0872   28.6666 C   0  0  0  0  0  0  0  0  0  0  0  0
    1.6423  -13.6410   26.0040 C   0  0  0  0  0  0  0  0  0  0  0  0
    2.3143  -13.0316   24.3996 N   0  0  0  0  0  0  0  0  0  0  0  0
    6.4156   -5.3301   25.7714 H   0  0  0  0  0  0  0  0  0  0  0  0
    6.9433   -3.8671   24.9190 H   0  0  0  0  0  0  0  0  0  0  0  0
    7.6621   -5.4631   24.5041 H   0  0  0  0  0  0  0  0  0  0  0  0
    5.8477   -7.1512   24.2811 H   0  0  0  0  0  0  0  0  0  0  0  0
    6.4574   -6.5733   22.7301 H   0  0  0  0  0  0  0  0  0  0  0  0
    4.8873   -7.2819   21.8200 H   0  0  0  0  0  0  0  0  0  0  0  0
    4.9760   -4.5888   22.0051 H   0  0  0  0  0  0  0  0  0  0  0  0
    4.6495   -3.7338   21.5612 H   0  0  0  0  0  0  0  0  0  0  0  0
    2.3468   -7.2622   24.8349 H   0  0  0  0  0  0  0  0  0  0  0  0
    2.9172   -6.0991   23.9673 H   0  0  0  0  0  0  0  0  0  0  0  0
    4.1158   -7.1482   24.8897 H   0  0  0  0  0  0  0  0  0  0  0  0
    1.7989  -10.9509   26.2522 H   0  0  0  0  0  0  0  0  0  0  0  0
    0.1488  -11.4265   27.5901 H   0  0  0  0  0  0  0  0  0  0  0  0
    1.8114  -15.3577   29.3092 H   0  0  0  0  0  0  0  0  0  0  0  0
   -2.1336  -15.2751   30.1442 H   0  0  0  0  0  0  0  0  0  0  0  0
   -1.9655  -13.5869   28.2333 H   0  0  0  0  0  0  0  0  0  0  0  0
    2.5580  -13.9985   26.5311 H   0  0  0  0  0  0  0  0  0  0  0  0
  1  2  1  0
  2  3  1  0
  3  4  1  0
  4  5  1  0
  5  6  1  0
  5  7  2  0
  4  8  1  0
  8  9  1  0
  8 10  1  0
 10 11  2  0
 10 12  1  0
 12 13  2  0
 13 14  1  0
 14 15  2  0
 15 16  1  0
 16 17  1  0
 17 18  2  0
 18 19  1  0
 19 20  1  0
 15 21  1  0
 21 22  2  0
 22 12  1  0
 20 16  2  0
  1 23  1  0
  1 24  1  0
  1 25  1  0
  3 26  1  0
  3 27  1  0
  4 28  1  0
  6 29  1  0
  6 30  1  0
  9 31  1  0
  9 32  1  0
  9 33  1  0
 13 34  1  0
 14 35  1  0
 17 36  1  0
 19 37  1  0
 20 38  1  0
 21 39  1  0
M  END
>  <Energy>  (1536) 
1066.3226127395028

>  <compound_id>  (1536) 
15930

>  <target_id>  (1536) 
1

>  <reference_id>  (1536) 
60

>  <inspiration_ids>  (1536) 
[60, 123]

>  <energy_score>  (1536) 
904.8378046993192

>  <distance_score>  (1536) 
13.808166230472919

>  <path>  (1536) 
/opt/xchem-fragalysis-2/maxwin/BulkDock/SCRATCH/511014/C15930-P60/C15930-P60.minimised.mol

>  <scratch_subdir>  (1536) 
/opt/xchem-fragalysis-2/maxwin/BulkDock/SCRATCH/511014/C15930-P60

>  <fragmenstein_runtime>  (1536) 
37.702234983444214

>  <fragmenstein_outcome>  (1536) 
too moved

>  <fragmenstein_mode>  (1536) 
expansion

>  <fragmenstein_error>  (1536) 


$$$$
C15930-P123
     RDKit          3D

 39 40  0  0  0  0  0  0  0  0999 V2000
    8.8058  -10.9179   17.1929 C   0  0  0  0  0  0  0  0  0  0  0  0
    7.5369  -10.4137   17.6347 O   0  0  0  0  0  0  0  0  0  0  0  0
    6.8556  -11.3711   18.4627 C   0  0  0  0  0  0  0  0  0  0  0  0
    5.2170  -11.7240   18.1597 C   0  0  0  0  0  0  0  0  0  0  0  0
    4.5947  -10.4694   16.9618 C   0  0  0  0  0  0  0  0  0  0  0  0
    5.4691   -9.3333   16.7661 N   0  0  0  0  0  0  0  0  0  0  0  0
    3.5158  -10.7215   16.4801 O   0  0  0  0  0  0  0  0  0  0  0  0
    4.2209  -12.7955   19.3268 N   0  0  0  0  0  0  0  0  0  0  0  0
    5.5147  -13.1299   19.8059 C   0  0  0  0  0  0  0  0  0  0  0  0
    3.3108  -14.2261   19.0155 C   0  0  0  0  0  0  0  0  0  0  0  0
    3.2082  -14.8771   17.9987 O   0  0  0  0  0  0  0  0  0  0  0  0
    2.3203  -14.8739   20.5440 C   0  0  0  0  0  0  0  0  0  0  0  0
    0.9209  -15.9548   20.4497 C   0  0  0  0  0  0  0  0  0  0  0  0
   -0.2821  -16.1404   21.4198 C   0  0  0  0  0  0  0  0  0  0  0  0
   -0.5982  -14.7768   22.6040 C   0  0  0  0  0  0  0  0  0  0  0  0
   -1.6855  -15.0586   24.2222 C   0  0  0  0  0  0  0  0  0  0  0  0
   -3.2085  -15.7661   24.4951 C   0  0  0  0  0  0  0  0  0  0  0  0
   -3.7823  -15.6139   25.6822 N   0  0  0  0  0  0  0  0  0  0  0  0
   -3.0303  -14.7017   26.2660 N   0  0  0  0  0  0  0  0  0  0  0  0
   -2.0063  -14.2105   25.4757 C   0  0  0  0  0  0  0  0  0  0  0  0
    1.1294  -14.5894   23.1947 C   0  0  0  0  0  0  0  0  0  0  0  0
    2.7007  -14.6508   22.2739 N   0  0  0  0  0  0  0  0  0  0  0  0
    9.2372  -10.2097   16.4837 H   0  0  0  0  0  0  0  0  0  0  0  0
    8.6696  -11.8658   16.6626 H   0  0  0  0  0  0  0  0  0  0  0  0
    9.4734  -11.0647   18.0461 H   0  0  0  0  0  0  0  0  0  0  0  0
    6.8983  -10.8819   19.4186 H   0  0  0  0  0  0  0  0  0  0  0  0
    7.4800  -12.2683   18.5791 H   0  0  0  0  0  0  0  0  0  0  0  0
    4.6119  -12.2730   17.4627 H   0  0  0  0  0  0  0  0  0  0  0  0
    6.3659   -9.5112   17.2522 H   0  0  0  0  0  0  0  0  0  0  0  0
    6.2592   -9.3984   17.4319 H   0  0  0  0  0  0  0  0  0  0  0  0
    6.1178  -12.3372   20.2266 H   0  0  0  0  0  0  0  0  0  0  0  0
    6.0183  -13.9741   19.3370 H   0  0  0  0  0  0  0  0  0  0  0  0
    5.2288  -13.4545   20.7748 H   0  0  0  0  0  0  0  0  0  0  0  0
    0.8627  -15.2118   21.2229 H   0  0  0  0  0  0  0  0  0  0  0  0
   -0.8097  -17.0752   21.1980 H   0  0  0  0  0  0  0  0  0  0  0  0
   -3.7904  -16.3555   23.7846 H   0  0  0  0  0  0  0  0  0  0  0  0
   -3.3072  -14.3693   27.1842 H   0  0  0  0  0  0  0  0  0  0  0  0
   -1.5308  -13.3185   25.8568 H   0  0  0  0  0  0  0  0  0  0  0  0
    1.0461  -13.9265   24.0410 H   0  0  0  0  0  0  0  0  0  0  0  0
  1  2  1  0
  2  3  1  0
  3  4  1  0
  4  5  1  0
  5  6  1  0
  5  7  2  0
  4  8  1  0
  8  9  1  0
  8 10  1  0
 10 11  2  0
 10 12  1  0
 12 13  2  0
 13 14  1  0
 14 15  2  0
 15 16  1  0
 16 17  1  0
 17 18  2  0
 18 19  1  0
 19 20  1  0
 15 21  1  0
 21 22  2  0
 22 12  1  0
 20 16  2  0
  1 23  1  0
  1 24  1  0
  1 25  1  0
  3 26  1  0
  3 27  1  0
  4 28  1  0
  6 29  1  0
  6 30  1  0
  9 31  1  0
  9 32  1  0
  9 33  1  0
 13 34  1  0
 14 35  1  0
 17 36  1  0
 19 37  1  0
 20 38  1  0
 21 39  1  0
M  END
>  <Energy>  (1537) 
1100.9662968974326

>  <compound_id>  (1537) 
15930

>  <target_id>  (1537) 
1

>  <reference_id>  (1537) 
123

>  <inspiration_ids>  (1537) 
[60, 123]

>  <energy_score>  (1537) 
939.4814888572597

>  <distance_score>  (1537) 
13.737898166058393

>  <path>  (1537) 
/opt/xchem-fragalysis-2/maxwin/BulkDock/SCRATCH/511014/C15930-P123/C15930-P123.minimised.mol

>  <scratch_subdir>  (1537) 
/opt/xchem-fragalysis-2/maxwin/BulkDock/SCRATCH/511014/C15930-P123

>  <fragmenstein_runtime>  (1537) 
37.63620901107788

>  <fragmenstein_outcome>  (1537) 
too moved

>  <fragmenstein_mode>  (1537) 
expansion

>  <fragmenstein_error>  (1537) 


$$$$
C15933-P60
     RDKit          3D

 36 39  0  0  0  0  0  0  0  0999 V2000
   -5.5809  -15.6865   21.6398 O   0  0  0  0  0  0  0  0  0  0  0  0
   -5.7488  -14.7025   22.3093 C   0  0  0  0  0  0  0  0  0  0  0  0
   -6.4550  -15.1320   23.8169 C   0  0  0  0  0  0  0  0  0  0  0  0
   -6.1019  -16.3849   24.4482 C   0  0  0  0  0  0  0  0  0  0  0  0
   -6.7381  -16.9315   25.6365 C   0  0  0  0  0  0  0  0  0  0  0  0
   -7.8801  -16.3375   26.1540 C   0  0  0  0  0  0  0  0  0  0  0  0
   -8.5169  -16.7198   27.4230 C   0  0  0  0  0  0  0  0  0  0  0  0
   -7.9668  -16.7168   28.7244 C   0  0  0  0  0  0  0  0  0  0  0  0
   -8.9018  -16.6527   29.6812 N   0  0  0  0  0  0  0  0  0  0  0  0
  -10.0570  -16.7354   28.9956 N   0  0  0  0  0  0  0  0  0  0  0  0
   -9.8726  -16.7027   27.6538 C   0  0  0  0  0  0  0  0  0  0  0  0
   -8.2603  -15.1978   25.4199 C   0  0  0  0  0  0  0  0  0  0  0  0
   -7.5883  -14.5579   24.3011 N   0  0  0  0  0  0  0  0  0  0  0  0
   -5.5147  -13.1329   21.9432 N   0  0  0  0  0  0  0  0  0  0  0  0
   -5.0945  -12.4352   20.5495 C   0  0  0  0  0  0  0  0  0  0  0  0
   -3.8600  -11.6994   21.0907 C   0  0  0  0  0  0  0  0  0  0  0  0
   -3.8861  -10.1854   21.2677 C   0  0  0  0  0  0  0  0  0  0  0  0
   -2.3953  -10.0658   20.6792 C   0  0  0  0  0  0  0  0  0  0  0  0
   -2.5558  -11.5445   20.2491 C   0  0  0  0  0  0  0  0  0  0  0  0
   -4.0697  -12.6766   22.2930 C   0  0  0  0  0  0  0  0  0  0  0  0
   -5.2543  -16.9277   24.0267 H   0  0  0  0  0  0  0  0  0  0  0  0
   -6.2893  -17.8046   26.1055 H   0  0  0  0  0  0  0  0  0  0  0  0
   -6.9244  -16.6545   29.0129 H   0  0  0  0  0  0  0  0  0  0  0  0
  -10.9301  -16.6486   29.4960 H   0  0  0  0  0  0  0  0  0  0  0  0
  -10.7034  -16.5398   26.9885 H   0  0  0  0  0  0  0  0  0  0  0  0
   -9.1334  -14.6195   25.7270 H   0  0  0  0  0  0  0  0  0  0  0  0
   -4.8939  -13.2200   19.8108 H   0  0  0  0  0  0  0  0  0  0  0  0
   -5.9183  -11.8036   20.2025 H   0  0  0  0  0  0  0  0  0  0  0  0
   -4.0056   -9.8144   22.2893 H   0  0  0  0  0  0  0  0  0  0  0  0
   -4.6253   -9.6781   20.6362 H   0  0  0  0  0  0  0  0  0  0  0  0
   -2.2881   -9.3481   19.8622 H   0  0  0  0  0  0  0  0  0  0  0  0
   -1.6246   -9.8886   21.4331 H   0  0  0  0  0  0  0  0  0  0  0  0
   -1.8110  -12.2268   20.6129 H   0  0  0  0  0  0  0  0  0  0  0  0
   -2.6984  -11.6801   19.1727 H   0  0  0  0  0  0  0  0  0  0  0  0
   -4.1486  -12.2395   23.2917 H   0  0  0  0  0  0  0  0  0  0  0  0
   -3.4402  -13.5743   22.2807 H   0  0  0  0  0  0  0  0  0  0  0  0
  1  2  2  0
  2  3  1  0
  3  4  2  0
  4  5  1  0
  5  6  2  0
  6  7  1  0
  7  8  1  0
  8  9  2  0
  9 10  1  0
 10 11  1  0
  6 12  1  0
 12 13  2  0
  2 14  1  0
 14 15  1  0
 15 16  1  0
 16 17  1  0
 17 18  1  0
 18 19  1  0
 16 20  1  0
 13  3  1  0
 20 14  1  0
 11  7  2  0
 19 16  1  0
  4 21  1  0
  5 22  1  0
  8 23  1  0
 10 24  1  0
 11 25  1  0
 12 26  1  0
 15 27  1  0
 15 28  1  0
 17 29  1  0
 17 30  1  0
 18 31  1  0
 18 32  1  0
 19 33  1  0
 19 34  1  0
 20 35  1  0
 20 36  1  0
M  END
>  <Energy>  (1538) 
189.66729474279475

>  <compound_id>  (1538) 
15933

>  <target_id>  (1538) 
1

>  <reference_id>  (1538) 
60

>  <inspiration_ids>  (1538) 
[60, 123]

>  <energy_score>  (1538) 
57.97557750213434

>  <distance_score>  (1538) 
14.95822519326035

>  <path>  (1538) 
/opt/xchem-fragalysis-2/maxwin/BulkDock/SCRATCH/511014/C15933-P60/C15933-P60.minimised.mol

>  <scratch_subdir>  (1538) 
/opt/xchem-fragalysis-2/maxwin/BulkDock/SCRATCH/511014/C15933-P60

>  <fragmenstein_runtime>  (1538) 
18.707382678985596

>  <fragmenstein_outcome>  (1538) 
too moved

>  <fragmenstein_mode>  (1538) 
expansion

>  <fragmenstein_error>  (1538) 


$$$$
C15933-P123
     RDKit          3D

 36 39  0  0  0  0  0  0  0  0999 V2000
    2.9790  -15.7639   17.3663 O   0  0  0  0  0  0  0  0  0  0  0  0
    1.9697  -15.0853   17.4742 C   0  0  0  0  0  0  0  0  0  0  0  0
    0.5635  -16.0057   17.7183 C   0  0  0  0  0  0  0  0  0  0  0  0
   -0.7797  -15.5975   17.7113 C   0  0  0  0  0  0  0  0  0  0  0  0
   -1.7938  -16.2559   18.5514 C   0  0  0  0  0  0  0  0  0  0  0  0
   -1.4911  -17.3170   19.4231 C   0  0  0  0  0  0  0  0  0  0  0  0
   -2.4329  -17.9013   20.4309 C   0  0  0  0  0  0  0  0  0  0  0  0
   -3.7633  -17.5523   20.8216 C   0  0  0  0  0  0  0  0  0  0  0  0
   -4.2548  -18.2942   21.8255 N   0  0  0  0  0  0  0  0  0  0  0  0
   -3.2511  -19.1400   22.1005 N   0  0  0  0  0  0  0  0  0  0  0  0
   -2.1503  -18.9427   21.3056 C   0  0  0  0  0  0  0  0  0  0  0  0
   -0.1648  -17.7167   19.2824 C   0  0  0  0  0  0  0  0  0  0  0  0
    0.8213  -17.1321   18.4652 N   0  0  0  0  0  0  0  0  0  0  0  0
    1.7997  -13.4866   17.5349 N   0  0  0  0  0  0  0  0  0  0  0  0
    3.2373  -11.9614   17.6054 C   0  0  0  0  0  0  0  0  0  0  0  0
    2.7637  -11.1256   16.1309 C   0  0  0  0  0  0  0  0  0  0  0  0
    3.5871  -11.0382   14.7754 C   0  0  0  0  0  0  0  0  0  0  0  0
    3.4740   -9.5062   14.8112 C   0  0  0  0  0  0  0  0  0  0  0  0
    2.9418   -9.5766   16.2483 C   0  0  0  0  0  0  0  0  0  0  0  0
    1.5480  -12.7130   15.6957 C   0  0  0  0  0  0  0  0  0  0  0  0
   -1.0536  -14.6900   17.1803 H   0  0  0  0  0  0  0  0  0  0  0  0
   -2.7967  -15.8325   18.5402 H   0  0  0  0  0  0  0  0  0  0  0  0
   -4.3883  -16.7703   20.4102 H   0  0  0  0  0  0  0  0  0  0  0  0
   -3.3771  -19.8210   22.8425 H   0  0  0  0  0  0  0  0  0  0  0  0
   -1.2691  -19.5521   21.4467 H   0  0  0  0  0  0  0  0  0  0  0  0
    0.2389  -18.5385   19.8704 H   0  0  0  0  0  0  0  0  0  0  0  0
    3.8781  -12.4665   18.3970 H   0  0  0  0  0  0  0  0  0  0  0  0
    4.2493  -12.1075   17.2244 H   0  0  0  0  0  0  0  0  0  0  0  0
    4.5938  -11.4499   14.7357 H   0  0  0  0  0  0  0  0  0  0  0  0
    3.0626  -11.4569   13.9066 H   0  0  0  0  0  0  0  0  0  0  0  0
    2.7404   -9.1123   14.0985 H   0  0  0  0  0  0  0  0  0  0  0  0
    4.4095   -8.9559   14.6806 H   0  0  0  0  0  0  0  0  0  0  0  0
    3.7024   -9.2795   16.9800 H   0  0  0  0  0  0  0  0  0  0  0  0
    2.1118   -8.8921   16.4634 H   0  0  0  0  0  0  0  0  0  0  0  0
    1.9139  -13.3960   14.8798 H   0  0  0  0  0  0  0  0  0  0  0  0
    0.5033  -13.0480   15.5783 H   0  0  0  0  0  0  0  0  0  0  0  0
  1  2  2  0
  2  3  1  0
  3  4  2  0
  4  5  1  0
  5  6  2  0
  6  7  1  0
  7  8  1  0
  8  9  2  0
  9 10  1  0
 10 11  1  0
  6 12  1  0
 12 13  2  0
  2 14  1  0
 14 15  1  0
 15 16  1  0
 16 17  1  0
 17 18  1  0
 18 19  1  0
 16 20  1  0
 13  3  1  0
 20 14  1  0
 11  7  2  0
 19 16  1  0
  4 21  1  0
  5 22  1  0
  8 23  1  0
 10 24  1  0
 11 25  1  0
 12 26  1  0
 15 27  1  0
 15 28  1  0
 17 29  1  0
 17 30  1  0
 18 31  1  0
 18 32  1  0
 19 33  1  0
 19 34  1  0
 20 35  1  0
 20 36  1  0
M  END
>  <Energy>  (1539) 
456.89949376614862

>  <compound_id>  (1539) 
15933

>  <target_id>  (1539) 
1

>  <reference_id>  (1539) 
123

>  <inspiration_ids>  (1539) 
[60, 123]

>  <energy_score>  (1539) 
332.0204468850813

>  <distance_score>  (1539) 
15.29680590314065

>  <path>  (1539) 
/opt/xchem-fragalysis-2/maxwin/BulkDock/SCRATCH/511014/C15933-P123/C15933-P123.minimised.mol

>  <scratch_subdir>  (1539) 
/opt/xchem-fragalysis-2/maxwin/BulkDock/SCRATCH/511014/C15933-P123

>  <fragmenstein_runtime>  (1539) 
17.368248224258423

>  <fragmenstein_outcome>  (1539) 
too moved

>  <fragmenstein_mode>  (1539) 
expansion

>  <fragmenstein_error>  (1539) 


$$$$
C15934-P60
     RDKit          3D

 27 29  0  0  0  0  0  0  0  0999 V2000
   -1.3602  -13.6994   25.5732 O   0  0  0  0  0  0  0  0  0  0  0  0
   -1.0595  -14.3444   24.6463 C   0  0  0  0  0  0  0  0  0  0  0  0
    0.7073  -14.0891   23.9639 N   0  0  0  0  0  0  0  0  0  0  0  0
    2.0837  -13.1313   24.5576 C   0  0  0  0  0  0  0  0  0  0  0  0
    2.8966  -12.7247   23.6536 N   0  0  0  0  0  0  0  0  0  0  0  0
    4.1036  -12.6480   24.3047 N   0  0  0  0  0  0  0  0  0  0  0  0
    5.0636  -13.1101   25.4006 C   0  0  0  0  0  0  0  0  0  0  0  0
    6.5538  -12.6952   25.5022 C   0  0  0  0  0  0  0  0  0  0  0  0
    6.9440  -11.5596   26.2203 C   0  0  0  0  0  0  0  0  0  0  0  0
    8.0968  -10.8369   25.8542 C   0  0  0  0  0  0  0  0  0  0  0  0
    8.8829  -11.2742   24.8008 C   0  0  0  0  0  0  0  0  0  0  0  0
    8.5085  -12.4543   24.1970 C   0  0  0  0  0  0  0  0  0  0  0  0
    7.3965  -13.1658   24.5376 N   0  0  0  0  0  0  0  0  0  0  0  0
    3.9922  -14.3345   25.2825 S   0  0  0  0  0  0  0  0  0  0  0  0
   -2.3961  -15.5266   24.3207 C   0  0  0  0  0  0  0  0  0  0  0  0
   -2.9230  -16.3984   25.6647 C   0  0  0  0  0  0  0  0  0  0  0  0
   -3.9123  -17.2778   25.5342 N   0  0  0  0  0  0  0  0  0  0  0  0
   -4.4562  -16.8809   24.4030 N   0  0  0  0  0  0  0  0  0  0  0  0
   -3.7563  -15.8138   23.7954 C   0  0  0  0  0  0  0  0  0  0  0  0
    0.8091  -14.6011   23.1526 H   0  0  0  0  0  0  0  0  0  0  0  0
    6.3208  -11.1749   27.0218 H   0  0  0  0  0  0  0  0  0  0  0  0
    8.3638   -9.9320   26.3946 H   0  0  0  0  0  0  0  0  0  0  0  0
    9.7736  -10.7408   24.4910 H   0  0  0  0  0  0  0  0  0  0  0  0
    9.0955  -12.8850   23.3897 H   0  0  0  0  0  0  0  0  0  0  0  0
   -2.5713  -16.2388   26.6837 H   0  0  0  0  0  0  0  0  0  0  0  0
   -5.3728  -17.2357   24.1464 H   0  0  0  0  0  0  0  0  0  0  0  0
   -4.4700  -15.2888   23.2219 H   0  0  0  0  0  0  0  0  0  0  0  0
  1  2  2  0
  2  3  1  0
  3  4  1  0
  4  5  2  0
  5  6  1  0
  6  7  2  0
  7  8  1  0
  8  9  2  0
  9 10  1  0
 10 11  2  0
 11 12  1  0
 12 13  2  0
  7 14  1  0
  2 15  1  0
 15 16  1  0
 16 17  2  0
 17 18  1  0
 18 19  1  0
 14  4  1  0
 19 15  2  0
 13  8  1  0
  3 20  1  0
  9 21  1  0
 10 22  1  0
 11 23  1  0
 12 24  1  0
 16 25  1  0
 18 26  1  0
 19 27  1  0
M  END
>  <Energy>  (1540) 
527.7454201926264

>  <compound_id>  (1540) 
15934

>  <target_id>  (1540) 
1

>  <reference_id>  (1540) 
60

>  <inspiration_ids>  (1540) 
[60, 123]

>  <energy_score>  (1540) 
426.41795766218536

>  <distance_score>  (1540) 
15.12503868665457

>  <path>  (1540) 
/opt/xchem-fragalysis-2/maxwin/BulkDock/SCRATCH/511014/C15934-P60/C15934-P60.minimised.mol

>  <scratch_subdir>  (1540) 
/opt/xchem-fragalysis-2/maxwin/BulkDock/SCRATCH/511014/C15934-P60

>  <fragmenstein_runtime>  (1540) 
12.266324043273926

>  <fragmenstein_outcome>  (1540) 
too moved

>  <fragmenstein_mode>  (1540) 
expansion

>  <fragmenstein_error>  (1540) 


$$$$
C15934-P123
     RDKit          3D

 27 29  0  0  0  0  0  0  0  0999 V2000
   -2.4120  -15.1617   27.2500 O   0  0  0  0  0  0  0  0  0  0  0  0
   -2.6738  -15.5796   26.1371 C   0  0  0  0  0  0  0  0  0  0  0  0
   -1.9799  -15.1890   24.6391 N   0  0  0  0  0  0  0  0  0  0  0  0
   -0.6713  -14.2102   24.2698 C   0  0  0  0  0  0  0  0  0  0  0  0
    0.8168  -14.0478   23.9539 N   0  0  0  0  0  0  0  0  0  0  0  0
    1.6192  -12.3835   23.5582 N   0  0  0  0  0  0  0  0  0  0  0  0
    0.5624  -11.7552   22.7502 C   0  0  0  0  0  0  0  0  0  0  0  0
   -0.0668  -10.3596   21.8108 C   0  0  0  0  0  0  0  0  0  0  0  0
   -1.3303  -10.3139   21.2033 C   0  0  0  0  0  0  0  0  0  0  0  0
   -1.8158   -9.1375   20.5816 C   0  0  0  0  0  0  0  0  0  0  0  0
   -1.0386   -7.9938   20.5120 C   0  0  0  0  0  0  0  0  0  0  0  0
    0.2131   -8.0819   21.0471 C   0  0  0  0  0  0  0  0  0  0  0  0
    0.6856   -9.2099   21.6302 N   0  0  0  0  0  0  0  0  0  0  0  0
   -0.1471  -13.9646   22.7213 S   0  0  0  0  0  0  0  0  0  0  0  0
   -3.7168  -16.6999   26.1631 C   0  0  0  0  0  0  0  0  0  0  0  0
   -4.6377  -17.2740   25.2533 C   0  0  0  0  0  0  0  0  0  0  0  0
   -5.3999  -18.2415   25.7842 N   0  0  0  0  0  0  0  0  0  0  0  0
   -5.0248  -18.2733   27.0723 N   0  0  0  0  0  0  0  0  0  0  0  0
   -4.0169  -17.3969   27.3367 C   0  0  0  0  0  0  0  0  0  0  0  0
   -2.4760  -15.6439   23.9096 H   0  0  0  0  0  0  0  0  0  0  0  0
   -1.9528  -11.1938   21.1142 H   0  0  0  0  0  0  0  0  0  0  0  0
   -2.8004   -9.1502   20.1201 H   0  0  0  0  0  0  0  0  0  0  0  0
   -1.3910   -7.0905   20.0324 H   0  0  0  0  0  0  0  0  0  0  0  0
    0.8907   -7.2376   21.0301 H   0  0  0  0  0  0  0  0  0  0  0  0
   -4.8162  -17.0086   24.2195 H   0  0  0  0  0  0  0  0  0  0  0  0
   -5.4987  -18.9029   27.7148 H   0  0  0  0  0  0  0  0  0  0  0  0
   -3.6074  -17.3053   28.3347 H   0  0  0  0  0  0  0  0  0  0  0  0
  1  2  2  0
  2  3  1  0
  3  4  1  0
  4  5  2  0
  5  6  1  0
  6  7  2  0
  7  8  1  0
  8  9  2  0
  9 10  1  0
 10 11  2  0
 11 12  1  0
 12 13  2  0
  7 14  1  0
  2 15  1  0
 15 16  1  0
 16 17  2  0
 17 18  1  0
 18 19  1  0
 14  4  1  0
 19 15  2  0
 13  8  1  0
  3 20  1  0
  9 21  1  0
 10 22  1  0
 11 23  1  0
 12 24  1  0
 16 25  1  0
 18 26  1  0
 19 27  1  0
M  END
>  <Energy>  (1541) 
449.36101368894498

>  <compound_id>  (1541) 
15934

>  <target_id>  (1541) 
1

>  <reference_id>  (1541) 
123

>  <inspiration_ids>  (1541) 
[60, 123]

>  <energy_score>  (1541) 
348.0335511584983

>  <distance_score>  (1541) 
14.240277700168825

>  <path>  (1541) 
/opt/xchem-fragalysis-2/maxwin/BulkDock/SCRATCH/511014/C15934-P123/C15934-P123.minimised.mol

>  <scratch_subdir>  (1541) 
/opt/xchem-fragalysis-2/maxwin/BulkDock/SCRATCH/511014/C15934-P123

>  <fragmenstein_runtime>  (1541) 
19.624053955078125

>  <fragmenstein_outcome>  (1541) 
too moved

>  <fragmenstein_mode>  (1541) 
expansion

>  <fragmenstein_error>  (1541) 


$$$$
C15937-P60
     RDKit          3D

 50 51  0  0  0  0  0  0  0  0999 V2000
    1.1950  -12.4925   13.9289 C   0  0  0  0  0  0  0  0  0  0  0  0
    1.6085  -12.7055   15.7593 C   0  0  0  0  0  0  0  0  0  0  0  0
    3.0055  -11.6103   16.0730 C   0  0  0  0  0  0  0  0  0  0  0  0
    3.6770  -11.7335   17.2643 N   0  0  0  0  0  0  0  0  0  0  0  0
    3.4313  -13.0110   18.1381 C   0  0  0  0  0  0  0  0  0  0  0  0
    2.1288  -14.0885   18.0416 C   0  0  0  0  0  0  0  0  0  0  0  0
    0.8490  -13.7850   17.1698 C   0  0  0  0  0  0  0  0  0  0  0  0
   -1.0245  -14.2596   18.0452 C   0  0  0  0  0  0  0  0  0  0  0  0
   -1.7695  -15.6134   19.5456 C   0  0  0  0  0  0  0  0  0  0  0  0
   -1.2652  -16.7051   19.4617 O   0  0  0  0  0  0  0  0  0  0  0  0
   -3.1494  -15.4986   20.8158 N   0  0  0  0  0  0  0  0  0  0  0  0
   -3.9947  -16.8044   21.8660 C   0  0  0  0  0  0  0  0  0  0  0  0
   -4.8978  -17.1388   23.4383 C   0  0  0  0  0  0  0  0  0  0  0  0
   -4.3353  -18.3924   24.5212 N   0  0  0  0  0  0  0  0  0  0  0  0
   -3.6952  -17.3058   25.1351 C   0  0  0  0  0  0  0  0  0  0  0  0
   -5.0088  -19.1411   25.4838 C   0  0  0  0  0  0  0  0  0  0  0  0
   -6.1259  -19.0587   25.8825 O   0  0  0  0  0  0  0  0  0  0  0  0
   -4.1122  -20.2360   26.0042 C   0  0  0  0  0  0  0  0  0  0  0  0
   -4.4426  -21.3504   26.8256 C   0  0  0  0  0  0  0  0  0  0  0  0
   -3.4157  -22.1320   27.1600 N   0  0  0  0  0  0  0  0  0  0  0  0
   -2.4048  -21.5771   26.4916 N   0  0  0  0  0  0  0  0  0  0  0  0
   -2.7659  -20.4639   25.7826 C   0  0  0  0  0  0  0  0  0  0  0  0
   -2.6042  -14.9271   22.7768 C   0  0  0  0  0  0  0  0  0  0  0  0
   -0.9679  -14.8620   22.2756 C   0  0  0  0  0  0  0  0  0  0  0  0
   -1.9121  -15.2178   24.3266 C   0  0  0  0  0  0  0  0  0  0  0  0
    0.5591  -13.2969   13.5177 H   0  0  0  0  0  0  0  0  0  0  0  0
    0.6449  -11.5712   13.6890 H   0  0  0  0  0  0  0  0  0  0  0  0
    2.1688  -12.4648   13.4152 H   0  0  0  0  0  0  0  0  0  0  0  0
    3.5486  -11.2016   15.2086 H   0  0  0  0  0  0  0  0  0  0  0  0
    4.1565  -13.1383   18.9495 H   0  0  0  0  0  0  0  0  0  0  0  0
    2.2297  -14.8347   18.7918 H   0  0  0  0  0  0  0  0  0  0  0  0
   -1.6131  -14.6117   17.1516 H   0  0  0  0  0  0  0  0  0  0  0  0
   -1.5663  -13.2771   18.0196 H   0  0  0  0  0  0  0  0  0  0  0  0
   -4.9202  -16.7323   21.2720 H   0  0  0  0  0  0  0  0  0  0  0  0
   -3.6483  -17.7607   21.4217 H   0  0  0  0  0  0  0  0  0  0  0  0
   -5.4164  -16.2820   23.8887 H   0  0  0  0  0  0  0  0  0  0  0  0
   -5.7540  -17.7055   23.0345 H   0  0  0  0  0  0  0  0  0  0  0  0
   -4.0898  -17.3091   26.1633 H   0  0  0  0  0  0  0  0  0  0  0  0
   -2.6938  -17.6468   25.4043 H   0  0  0  0  0  0  0  0  0  0  0  0
   -3.8621  -16.2842   24.8866 H   0  0  0  0  0  0  0  0  0  0  0  0
   -5.4038  -21.6359   27.2123 H   0  0  0  0  0  0  0  0  0  0  0  0
   -1.4911  -22.0157   26.5497 H   0  0  0  0  0  0  0  0  0  0  0  0
   -2.0355  -19.9467   25.1843 H   0  0  0  0  0  0  0  0  0  0  0  0
   -3.4780  -15.3689   23.2980 H   0  0  0  0  0  0  0  0  0  0  0  0
   -1.6135  -14.5496   21.4196 H   0  0  0  0  0  0  0  0  0  0  0  0
   -0.4081  -15.7174   21.7781 H   0  0  0  0  0  0  0  0  0  0  0  0
   -0.3064  -14.0981   22.7030 H   0  0  0  0  0  0  0  0  0  0  0  0
   -2.2628  -14.6970   25.2306 H   0  0  0  0  0  0  0  0  0  0  0  0
   -2.0811  -16.1667   24.6799 H   0  0  0  0  0  0  0  0  0  0  0  0
   -0.9513  -14.7413   24.3586 H   0  0  0  0  0  0  0  0  0  0  0  0
  1  2  1  0
  2  3  2  0
  3  4  1  0
  4  5  2  0
  5  6  1  0
  6  7  2  0
  7  8  1  0
  8  9  1  0
  9 10  2  0
  9 11  1  0
 11 12  1  0
 12 13  1  0
 13 14  1  0
 14 15  1  0
 14 16  1  0
 16 17  2  0
 16 18  1  0
 18 19  1  0
 19 20  2  0
 20 21  1  0
 21 22  1  0
 11 23  1  0
 23 24  1  0
 23 25  1  0
  7  2  1  0
 22 18  2  0
  1 26  1  0
  1 27  1  0
  1 28  1  0
  3 29  1  0
  5 30  1  0
  6 31  1  0
  8 32  1  0
  8 33  1  0
 12 34  1  0
 12 35  1  0
 13 36  1  0
 13 37  1  0
 15 38  1  0
 15 39  1  0
 15 40  1  0
 19 41  1  0
 21 42  1  0
 22 43  1  0
 23 44  1  0
 24 45  1  0
 24 46  1  0
 24 47  1  0
 25 48  1  0
 25 49  1  0
 25 50  1  0
M  END
>  <Energy>  (1542) 
1207.9384764532374

>  <compound_id>  (1542) 
15937

>  <target_id>  (1542) 
1

>  <reference_id>  (1542) 
60

>  <inspiration_ids>  (1542) 
[60, 123]

>  <energy_score>  (1542) 
1124.5542107549238

>  <distance_score>  (1542) 
12.435474279165064

>  <path>  (1542) 
/opt/xchem-fragalysis-2/maxwin/BulkDock/SCRATCH/511014/C15937-P60/C15937-P60.minimised.mol

>  <scratch_subdir>  (1542) 
/opt/xchem-fragalysis-2/maxwin/BulkDock/SCRATCH/511014/C15937-P60

>  <fragmenstein_runtime>  (1542) 
53.002838134765625

>  <fragmenstein_outcome>  (1542) 
too moved

>  <fragmenstein_mode>  (1542) 
expansion

>  <fragmenstein_error>  (1542) 


$$$$
C15937-P123
     RDKit          3D

 50 51  0  0  0  0  0  0  0  0999 V2000
    4.8702   -6.5138   16.8535 C   0  0  0  0  0  0  0  0  0  0  0  0
    5.2671   -7.6207   18.2369 C   0  0  0  0  0  0  0  0  0  0  0  0
    6.2991   -6.2361   18.3335 C   0  0  0  0  0  0  0  0  0  0  0  0
    7.1463   -5.7475   19.2583 N   0  0  0  0  0  0  0  0  0  0  0  0
    7.3880   -6.7321   20.0078 C   0  0  0  0  0  0  0  0  0  0  0  0
    6.3409   -7.9926   19.6603 C   0  0  0  0  0  0  0  0  0  0  0  0
    5.1177   -9.3779   18.8559 C   0  0  0  0  0  0  0  0  0  0  0  0
    5.2520  -11.4440   19.8738 C   0  0  0  0  0  0  0  0  0  0  0  0
    3.7234  -13.1412   19.7561 C   0  0  0  0  0  0  0  0  0  0  0  0
    3.4964  -13.3063   18.5434 O   0  0  0  0  0  0  0  0  0  0  0  0
    2.3241  -14.3931   20.8729 N   0  0  0  0  0  0  0  0  0  0  0  0
    0.9504  -15.7886   20.2063 C   0  0  0  0  0  0  0  0  0  0  0  0
   -0.7662  -16.6465   20.3678 C   0  0  0  0  0  0  0  0  0  0  0  0
   -1.9730  -17.9037   19.9720 N   0  0  0  0  0  0  0  0  0  0  0  0
   -0.9843  -18.7881   20.6874 C   0  0  0  0  0  0  0  0  0  0  0  0
   -3.3304  -18.1317   20.5083 C   0  0  0  0  0  0  0  0  0  0  0  0
   -3.9177  -17.5833   21.4034 O   0  0  0  0  0  0  0  0  0  0  0  0
   -4.1286  -19.2626   20.0011 C   0  0  0  0  0  0  0  0  0  0  0  0
   -5.3802  -19.6451   20.6126 C   0  0  0  0  0  0  0  0  0  0  0  0
   -5.7962  -20.8619   20.2649 N   0  0  0  0  0  0  0  0  0  0  0  0
   -4.8573  -21.2575   19.3930 N   0  0  0  0  0  0  0  0  0  0  0  0
   -3.8444  -20.3472   19.2051 C   0  0  0  0  0  0  0  0  0  0  0  0
    0.2018  -13.9897   21.7901 C   0  0  0  0  0  0  0  0  0  0  0  0
    0.4392  -11.9711   22.6171 C   0  0  0  0  0  0  0  0  0  0  0  0
   -1.3607  -12.9147   20.7954 C   0  0  0  0  0  0  0  0  0  0  0  0
    5.7401   -6.4327   16.1678 H   0  0  0  0  0  0  0  0  0  0  0  0
    4.7091   -5.4894   17.1975 H   0  0  0  0  0  0  0  0  0  0  0  0
    4.0905   -6.6394   16.1094 H   0  0  0  0  0  0  0  0  0  0  0  0
    6.6749   -5.8755   17.3992 H   0  0  0  0  0  0  0  0  0  0  0  0
    7.8787   -6.5676   20.9625 H   0  0  0  0  0  0  0  0  0  0  0  0
    6.2410   -7.7239   20.7344 H   0  0  0  0  0  0  0  0  0  0  0  0
    5.5888  -11.3755   20.9091 H   0  0  0  0  0  0  0  0  0  0  0  0
    6.0932  -11.8209   19.2667 H   0  0  0  0  0  0  0  0  0  0  0  0
    1.0846  -16.8221   20.3588 H   0  0  0  0  0  0  0  0  0  0  0  0
    1.3373  -15.7364   19.1801 H   0  0  0  0  0  0  0  0  0  0  0  0
   -0.3509  -17.2417   19.5537 H   0  0  0  0  0  0  0  0  0  0  0  0
   -0.5252  -16.9154   21.3690 H   0  0  0  0  0  0  0  0  0  0  0  0
    0.0196  -18.8791   20.2720 H   0  0  0  0  0  0  0  0  0  0  0  0
   -1.3591  -19.7981   20.4563 H   0  0  0  0  0  0  0  0  0  0  0  0
   -1.0523  -18.8208   21.7666 H   0  0  0  0  0  0  0  0  0  0  0  0
   -5.9477  -19.0884   21.3494 H   0  0  0  0  0  0  0  0  0  0  0  0
   -4.9608  -22.1708   18.9629 H   0  0  0  0  0  0  0  0  0  0  0  0
   -2.9964  -20.5840   18.5795 H   0  0  0  0  0  0  0  0  0  0  0  0
   -0.1048  -14.3322   22.7611 H   0  0  0  0  0  0  0  0  0  0  0  0
    1.3287  -11.8529   23.3127 H   0  0  0  0  0  0  0  0  0  0  0  0
   -0.3551  -11.2194   22.3811 H   0  0  0  0  0  0  0  0  0  0  0  0
    0.9194  -11.2222   21.9676 H   0  0  0  0  0  0  0  0  0  0  0  0
   -2.0517  -13.7150   20.5981 H   0  0  0  0  0  0  0  0  0  0  0  0
   -1.8009  -12.0317   21.2896 H   0  0  0  0  0  0  0  0  0  0  0  0
   -1.2076  -12.1991   19.9352 H   0  0  0  0  0  0  0  0  0  0  0  0
  1  2  1  0
  2  3  2  0
  3  4  1  0
  4  5  2  0
  5  6  1  0
  6  7  2  0
  7  8  1  0
  8  9  1  0
  9 10  2  0
  9 11  1  0
 11 12  1  0
 12 13  1  0
 13 14  1  0
 14 15  1  0
 14 16  1  0
 16 17  2  0
 16 18  1  0
 18 19  1  0
 19 20  2  0
 20 21  1  0
 21 22  1  0
 11 23  1  0
 23 24  1  0
 23 25  1  0
  7  2  1  0
 22 18  2  0
  1 26  1  0
  1 27  1  0
  1 28  1  0
  3 29  1  0
  5 30  1  0
  6 31  1  0
  8 32  1  0
  8 33  1  0
 12 34  1  0
 12 35  1  0
 13 36  1  0
 13 37  1  0
 15 38  1  0
 15 39  1  0
 15 40  1  0
 19 41  1  0
 21 42  1  0
 22 43  1  0
 23 44  1  0
 24 45  1  0
 24 46  1  0
 24 47  1  0
 25 48  1  0
 25 49  1  0
 25 50  1  0
M  END
>  <Energy>  (1543) 
2484.141520399899

>  <compound_id>  (1543) 
15937

>  <target_id>  (1543) 
1

>  <reference_id>  (1543) 
123

>  <inspiration_ids>  (1543) 
[60, 123]

>  <energy_score>  (1543) 
2400.757254701613

>  <distance_score>  (1543) 
12.825499367669565

>  <path>  (1543) 
/opt/xchem-fragalysis-2/maxwin/BulkDock/SCRATCH/511014/C15937-P123/C15937-P123.minimised.mol

>  <scratch_subdir>  (1543) 
/opt/xchem-fragalysis-2/maxwin/BulkDock/SCRATCH/511014/C15937-P123

>  <fragmenstein_runtime>  (1543) 
62.93237543106079

>  <fragmenstein_outcome>  (1543) 
too moved

>  <fragmenstein_mode>  (1543) 
expansion

>  <fragmenstein_error>  (1543) 


$$$$
C15939-P60
     RDKit          3D

 42 43  0  0  0  0  0  0  0  0999 V2000
    2.9377  -19.3551   27.2671 C   0  0  0  0  0  0  0  0  0  0  0  0
    3.0765  -17.6829   28.0304 C   0  0  0  0  0  0  0  0  0  0  0  0
    2.0019  -18.0675   28.6794 N   0  0  0  0  0  0  0  0  0  0  0  0
    3.8291  -17.4648   28.2386 C   0  0  0  0  0  0  0  0  0  0  0  0
    4.2176  -15.7044   28.5004 C   0  0  0  0  0  0  0  0  0  0  0  0
    4.7040  -15.5151   29.9399 C   0  0  0  0  0  0  0  0  0  0  0  0
    5.1675  -15.0010   27.5786 N   0  0  0  0  0  0  0  0  0  0  0  0
    6.5466  -15.2876   27.2338 C   0  0  0  0  0  0  0  0  0  0  0  0
    7.2510  -16.2074   27.5377 O   0  0  0  0  0  0  0  0  0  0  0  0
    7.2368  -14.1214   26.4032 C   0  0  0  0  0  0  0  0  0  0  0  0
    6.6978  -12.8680   26.5281 N   0  0  0  0  0  0  0  0  0  0  0  0
    7.3514  -11.8319   25.9119 C   0  0  0  0  0  0  0  0  0  0  0  0
    8.4866  -11.9496   25.1290 C   0  0  0  0  0  0  0  0  0  0  0  0
    9.0275  -13.2171   24.9929 C   0  0  0  0  0  0  0  0  0  0  0  0
    8.4116  -14.3065   25.6423 C   0  0  0  0  0  0  0  0  0  0  0  0
    8.9516  -15.5516   25.4627 O   0  0  0  0  0  0  0  0  0  0  0  0
    1.2206  -17.5716   29.9431 C   0  0  0  0  0  0  0  0  0  0  0  0
    1.4504  -16.7602   30.7329 O   0  0  0  0  0  0  0  0  0  0  0  0
   -0.0414  -18.3659   30.0529 C   0  0  0  0  0  0  0  0  0  0  0  0
   -0.5028  -19.5007   29.3298 C   0  0  0  0  0  0  0  0  0  0  0  0
   -1.7071  -19.9446   29.7150 N   0  0  0  0  0  0  0  0  0  0  0  0
   -2.0369  -19.1110   30.7139 N   0  0  0  0  0  0  0  0  0  0  0  0
   -1.0827  -18.1599   30.9507 C   0  0  0  0  0  0  0  0  0  0  0  0
    3.6841  -19.4545   26.4683 H   0  0  0  0  0  0  0  0  0  0  0  0
    1.9329  -19.5010   26.8469 H   0  0  0  0  0  0  0  0  0  0  0  0
    3.1407  -20.1080   28.0410 H   0  0  0  0  0  0  0  0  0  0  0  0
    2.2581  -16.7778   27.7727 H   0  0  0  0  0  0  0  0  0  0  0  0
    2.9083  -17.5048   26.7612 H   0  0  0  0  0  0  0  0  0  0  0  0
    4.3804  -17.8415   29.2652 H   0  0  0  0  0  0  0  0  0  0  0  0
    4.7265  -17.9580   27.5126 H   0  0  0  0  0  0  0  0  0  0  0  0
    3.2796  -15.1516   28.3909 H   0  0  0  0  0  0  0  0  0  0  0  0
    5.6664  -16.0127   30.0987 H   0  0  0  0  0  0  0  0  0  0  0  0
    4.8407  -14.4517   30.1652 H   0  0  0  0  0  0  0  0  0  0  0  0
    3.9849  -15.9207   30.6564 H   0  0  0  0  0  0  0  0  0  0  0  0
    4.9162  -14.0822   27.2090 H   0  0  0  0  0  0  0  0  0  0  0  0
    6.9292  -10.8489   26.0958 H   0  0  0  0  0  0  0  0  0  0  0  0
    8.9370  -11.0814   24.6620 H   0  0  0  0  0  0  0  0  0  0  0  0
    9.9168  -13.3585   24.3861 H   0  0  0  0  0  0  0  0  0  0  0  0
    9.8777  -15.4709   25.1821 H   0  0  0  0  0  0  0  0  0  0  0  0
    0.0102  -20.0242   28.5336 H   0  0  0  0  0  0  0  0  0  0  0  0
   -2.9277  -19.2440   31.1838 H   0  0  0  0  0  0  0  0  0  0  0  0
   -1.2133  -17.4172   31.7254 H   0  0  0  0  0  0  0  0  0  0  0  0
  1  2  1  0
  2  3  1  0
  3  4  1  0
  4  5  1  0
  5  6  1  0
  5  7  1  0
  7  8  1  0
  8  9  2  0
  8 10  1  0
 10 11  2  0
 11 12  1  0
 12 13  2  0
 13 14  1  0
 14 15  2  0
 15 16  1  0
  3 17  1  0
 17 18  2  0
 17 19  1  0
 19 20  1  0
 20 21  2  0
 21 22  1  0
 22 23  1  0
 15 10  1  0
 23 19  2  0
  1 24  1  0
  1 25  1  0
  1 26  1  0
  2 27  1  0
  2 28  1  0
  4 29  1  0
  4 30  1  0
  5 31  1  0
  6 32  1  0
  6 33  1  0
  6 34  1  0
  7 35  1  0
 12 36  1  0
 13 37  1  0
 14 38  1  0
 16 39  1  0
 20 40  1  0
 22 41  1  0
 23 42  1  0
M  END
>  <Energy>  (1544) 
857.85857900840392

>  <compound_id>  (1544) 
15939

>  <target_id>  (1544) 
1

>  <reference_id>  (1544) 
60

>  <inspiration_ids>  (1544) 
[60, 123]

>  <energy_score>  (1544) 
737.2493024674754

>  <distance_score>  (1544) 
14.54417192421455

>  <path>  (1544) 
/opt/xchem-fragalysis-2/maxwin/BulkDock/SCRATCH/511014/C15939-P60/C15939-P60.minimised.mol

>  <scratch_subdir>  (1544) 
/opt/xchem-fragalysis-2/maxwin/BulkDock/SCRATCH/511014/C15939-P60

>  <fragmenstein_runtime>  (1544) 
60.69099283218384

>  <fragmenstein_outcome>  (1544) 
too moved

>  <fragmenstein_mode>  (1544) 
expansion

>  <fragmenstein_error>  (1544) 


$$$$
C15939-P123
     RDKit          3D

 42 43  0  0  0  0  0  0  0  0999 V2000
   -2.3247  -19.1239   17.8516 C   0  0  0  0  0  0  0  0  0  0  0  0
   -2.4848  -17.6469   18.9910 C   0  0  0  0  0  0  0  0  0  0  0  0
   -3.6305  -17.7816   19.5220 N   0  0  0  0  0  0  0  0  0  0  0  0
   -1.7358  -17.1359   19.1051 C   0  0  0  0  0  0  0  0  0  0  0  0
   -1.2845  -15.1442   18.6048 C   0  0  0  0  0  0  0  0  0  0  0  0
   -1.9546  -15.0548   20.0211 C   0  0  0  0  0  0  0  0  0  0  0  0
    0.3026  -13.8446   18.1146 N   0  0  0  0  0  0  0  0  0  0  0  0
    2.1851  -14.0114   18.3587 C   0  0  0  0  0  0  0  0  0  0  0  0
    2.6164  -15.0225   18.7548 O   0  0  0  0  0  0  0  0  0  0  0  0
    3.7289  -12.6048   18.2585 C   0  0  0  0  0  0  0  0  0  0  0  0
    3.5941  -11.6255   17.1772 N   0  0  0  0  0  0  0  0  0  0  0  0
    4.7167  -11.0276   16.5882 C   0  0  0  0  0  0  0  0  0  0  0  0
    6.0189  -11.3423   16.8898 C   0  0  0  0  0  0  0  0  0  0  0  0
    6.2050  -12.2454   17.9215 C   0  0  0  0  0  0  0  0  0  0  0  0
    5.1016  -12.8431   18.6063 C   0  0  0  0  0  0  0  0  0  0  0  0
    5.4906  -13.2204   19.8563 O   0  0  0  0  0  0  0  0  0  0  0  0
   -4.4276  -19.2993   19.5890 C   0  0  0  0  0  0  0  0  0  0  0  0
   -4.0862  -20.3708   19.3084 O   0  0  0  0  0  0  0  0  0  0  0  0
   -5.8072  -19.3121   20.2204 C   0  0  0  0  0  0  0  0  0  0  0  0
   -6.7374  -18.3540   20.6813 C   0  0  0  0  0  0  0  0  0  0  0  0
   -7.8022  -18.8706   21.3212 N   0  0  0  0  0  0  0  0  0  0  0  0
   -7.5682  -20.1889   21.2941 N   0  0  0  0  0  0  0  0  0  0  0  0
   -6.4155  -20.5016   20.6434 C   0  0  0  0  0  0  0  0  0  0  0  0
   -3.2472  -19.2405   17.2722 H   0  0  0  0  0  0  0  0  0  0  0  0
   -2.0896  -20.0208   18.4378 H   0  0  0  0  0  0  0  0  0  0  0  0
   -1.4821  -19.0424   17.1718 H   0  0  0  0  0  0  0  0  0  0  0  0
   -3.3094  -17.3065   18.1944 H   0  0  0  0  0  0  0  0  0  0  0  0
   -2.3019  -18.6075   19.7706 H   0  0  0  0  0  0  0  0  0  0  0  0
   -0.7954  -17.9802   18.7774 H   0  0  0  0  0  0  0  0  0  0  0  0
   -1.1790  -17.2066   20.1874 H   0  0  0  0  0  0  0  0  0  0  0  0
   -1.9513  -14.8358   17.7883 H   0  0  0  0  0  0  0  0  0  0  0  0
   -1.4268  -15.6991   20.6781 H   0  0  0  0  0  0  0  0  0  0  0  0
   -1.9956  -14.0917   20.5337 H   0  0  0  0  0  0  0  0  0  0  0  0
   -2.8856  -15.5843   20.1400 H   0  0  0  0  0  0  0  0  0  0  0  0
    0.1052  -12.9510   17.6921 H   0  0  0  0  0  0  0  0  0  0  0  0
    4.4886  -10.3010   15.8138 H   0  0  0  0  0  0  0  0  0  0  0  0
    6.8534  -10.8855   16.3742 H   0  0  0  0  0  0  0  0  0  0  0  0
    7.2121  -12.4550   18.2757 H   0  0  0  0  0  0  0  0  0  0  0  0
    4.7519  -13.7737   20.1871 H   0  0  0  0  0  0  0  0  0  0  0  0
   -6.6729  -17.2851   20.5902 H   0  0  0  0  0  0  0  0  0  0  0  0
   -8.2457  -20.8194   21.7119 H   0  0  0  0  0  0  0  0  0  0  0  0
   -6.0911  -21.5288   20.5498 H   0  0  0  0  0  0  0  0  0  0  0  0
  1  2  1  0
  2  3  1  0
  3  4  1  0
  4  5  1  0
  5  6  1  0
  5  7  1  0
  7  8  1  0
  8  9  2  0
  8 10  1  0
 10 11  2  0
 11 12  1  0
 12 13  2  0
 13 14  1  0
 14 15  2  0
 15 16  1  0
  3 17  1  0
 17 18  2  0
 17 19  1  0
 19 20  1  0
 20 21  2  0
 21 22  1  0
 22 23  1  0
 15 10  1  0
 23 19  2  0
  1 24  1  0
  1 25  1  0
  1 26  1  0
  2 27  1  0
  2 28  1  0
  4 29  1  0
  4 30  1  0
  5 31  1  0
  6 32  1  0
  6 33  1  0
  6 34  1  0
  7 35  1  0
 12 36  1  0
 13 37  1  0
 14 38  1  0
 16 39  1  0
 20 40  1  0
 22 41  1  0
 23 42  1  0
M  END
>  <Energy>  (1545) 
1365.1943858537354

>  <compound_id>  (1545) 
15939

>  <target_id>  (1545) 
1

>  <reference_id>  (1545) 
123

>  <inspiration_ids>  (1545) 
[60, 123]

>  <energy_score>  (1545) 
1244.5851093128144

>  <distance_score>  (1545) 
13.499053414027653

>  <path>  (1545) 
/opt/xchem-fragalysis-2/maxwin/BulkDock/SCRATCH/511014/C15939-P123/C15939-P123.minimised.mol

>  <scratch_subdir>  (1545) 
/opt/xchem-fragalysis-2/maxwin/BulkDock/SCRATCH/511014/C15939-P123

>  <fragmenstein_runtime>  (1545) 
31.633569717407227

>  <fragmenstein_outcome>  (1545) 
too moved

>  <fragmenstein_mode>  (1545) 
expansion

>  <fragmenstein_error>  (1545) 


$$$$
C15940-P60
     RDKit          3D

 43 44  0  0  0  0  0  0  0  0999 V2000
   -0.8446  -16.7445   20.4031 C   0  0  0  0  0  0  0  0  0  0  0  0
   -2.1223  -15.6795   19.5285 C   0  0  0  0  0  0  0  0  0  0  0  0
   -3.2011  -16.4183   19.5036 N   0  0  0  0  0  0  0  0  0  0  0  0
   -1.9118  -14.8236   19.3810 C   0  0  0  0  0  0  0  0  0  0  0  0
   -2.3628  -12.8086   18.9039 C   0  0  0  0  0  0  0  0  0  0  0  0
   -3.7014  -12.0124   19.3643 C   0  0  0  0  0  0  0  0  0  0  0  0
   -1.6834  -11.3512   18.9616 N   0  0  0  0  0  0  0  0  0  0  0  0
   -1.8018  -10.2135   20.0222 C   0  0  0  0  0  0  0  0  0  0  0  0
   -2.3681  -10.1958   21.0954 O   0  0  0  0  0  0  0  0  0  0  0  0
   -1.1789   -8.7211   19.6434 C   0  0  0  0  0  0  0  0  0  0  0  0
   -0.9674   -8.4053   18.3194 N   0  0  0  0  0  0  0  0  0  0  0  0
   -0.0729   -7.3927   18.0517 C   0  0  0  0  0  0  0  0  0  0  0  0
    0.5048   -6.5649   18.9875 C   0  0  0  0  0  0  0  0  0  0  0  0
    0.1612   -6.7935   20.3070 C   0  0  0  0  0  0  0  0  0  0  0  0
   -0.6837   -7.8676   20.6634 C   0  0  0  0  0  0  0  0  0  0  0  0
   -0.7586   -8.1708   22.0497 N   0  0  0  0  0  0  0  0  0  0  0  0
   -3.2142  -17.9849   18.9233 C   0  0  0  0  0  0  0  0  0  0  0  0
   -2.4140  -18.6144   18.3767 O   0  0  0  0  0  0  0  0  0  0  0  0
   -4.5224  -18.7317   19.1633 C   0  0  0  0  0  0  0  0  0  0  0  0
   -4.6623  -20.1571   19.0174 C   0  0  0  0  0  0  0  0  0  0  0  0
   -5.8339  -20.6526   19.4306 N   0  0  0  0  0  0  0  0  0  0  0  0
   -6.4655  -19.5725   19.8951 N   0  0  0  0  0  0  0  0  0  0  0  0
   -5.7698  -18.4048   19.6846 C   0  0  0  0  0  0  0  0  0  0  0  0
    0.0544  -17.0135   19.8794 H   0  0  0  0  0  0  0  0  0  0  0  0
   -1.3228  -17.6725   20.6856 H   0  0  0  0  0  0  0  0  0  0  0  0
   -0.3649  -16.2348   21.2260 H   0  0  0  0  0  0  0  0  0  0  0  0
   -1.8119  -16.4865   18.8552 H   0  0  0  0  0  0  0  0  0  0  0  0
   -2.6495  -15.7682   20.5670 H   0  0  0  0  0  0  0  0  0  0  0  0
   -1.6922  -14.6448   18.2043 H   0  0  0  0  0  0  0  0  0  0  0  0
   -2.0536  -14.1823   20.4685 H   0  0  0  0  0  0  0  0  0  0  0  0
   -2.4184  -12.9156   17.8070 H   0  0  0  0  0  0  0  0  0  0  0  0
   -3.7659  -11.1555   18.6931 H   0  0  0  0  0  0  0  0  0  0  0  0
   -4.7257  -12.3420   19.3014 H   0  0  0  0  0  0  0  0  0  0  0  0
   -3.6349  -11.7028   20.3905 H   0  0  0  0  0  0  0  0  0  0  0  0
   -1.2108  -10.9995   18.1488 H   0  0  0  0  0  0  0  0  0  0  0  0
    0.1792   -7.2693   17.0005 H   0  0  0  0  0  0  0  0  0  0  0  0
    1.1925   -5.7775   18.7065 H   0  0  0  0  0  0  0  0  0  0  0  0
    0.5793   -6.1644   21.0877 H   0  0  0  0  0  0  0  0  0  0  0  0
   -1.6132   -8.7282   22.1962 H   0  0  0  0  0  0  0  0  0  0  0  0
    0.0336   -8.7816   22.2825 H   0  0  0  0  0  0  0  0  0  0  0  0
   -3.9111  -20.8427   18.6430 H   0  0  0  0  0  0  0  0  0  0  0  0
   -7.3683  -19.6973   20.3394 H   0  0  0  0  0  0  0  0  0  0  0  0
   -6.2127  -17.4966   20.0444 H   0  0  0  0  0  0  0  0  0  0  0  0
  1  2  1  0
  2  3  1  0
  3  4  1  0
  4  5  1  0
  5  6  1  0
  5  7  1  0
  7  8  1  0
  8  9  2  0
  8 10  1  0
 10 11  2  0
 11 12  1  0
 12 13  2  0
 13 14  1  0
 14 15  2  0
 15 16  1  0
  3 17  1  0
 17 18  2  0
 17 19  1  0
 19 20  1  0
 20 21  2  0
 21 22  1  0
 22 23  1  0
 15 10  1  0
 23 19  2  0
  1 24  1  0
  1 25  1  0
  1 26  1  0
  2 27  1  0
  2 28  1  0
  4 29  1  0
  4 30  1  0
  5 31  1  0
  6 32  1  0
  6 33  1  0
  6 34  1  0
  7 35  1  0
 12 36  1  0
 13 37  1  0
 14 38  1  0
 16 39  1  0
 16 40  1  0
 20 41  1  0
 22 42  1  0
 23 43  1  0
M  END
>  <Energy>  (1546) 
1109.5189504885459

>  <compound_id>  (1546) 
15940

>  <target_id>  (1546) 
1

>  <reference_id>  (1546) 
60

>  <inspiration_ids>  (1546) 
[60, 123]

>  <energy_score>  (1546) 
970.6420753868468

>  <distance_score>  (1546) 
15.115670048483434

>  <path>  (1546) 
/opt/xchem-fragalysis-2/maxwin/BulkDock/SCRATCH/511014/C15940-P60/C15940-P60.minimised.mol

>  <scratch_subdir>  (1546) 
/opt/xchem-fragalysis-2/maxwin/BulkDock/SCRATCH/511014/C15940-P60

>  <fragmenstein_runtime>  (1546) 
38.83011054992676

>  <fragmenstein_outcome>  (1546) 
too moved

>  <fragmenstein_mode>  (1546) 
expansion

>  <fragmenstein_error>  (1546) 


$$$$
C15940-P123
     RDKit          3D

 43 44  0  0  0  0  0  0  0  0999 V2000
   -2.6527  -15.5221   24.6975 C   0  0  0  0  0  0  0  0  0  0  0  0
   -4.3307  -14.9186   23.7341 C   0  0  0  0  0  0  0  0  0  0  0  0
   -5.3357  -15.5676   24.2477 N   0  0  0  0  0  0  0  0  0  0  0  0
   -4.1248  -13.9738   23.7710 C   0  0  0  0  0  0  0  0  0  0  0  0
   -3.7676  -11.7685   24.0882 C   0  0  0  0  0  0  0  0  0  0  0  0
   -3.8444  -10.3912   22.4801 C   0  0  0  0  0  0  0  0  0  0  0  0
   -2.8608  -10.0030   23.7926 N   0  0  0  0  0  0  0  0  0  0  0  0
   -1.7791   -9.4382   22.4689 C   0  0  0  0  0  0  0  0  0  0  0  0
   -1.3464  -10.1210   21.5505 O   0  0  0  0  0  0  0  0  0  0  0  0
   -1.3438   -7.8762   22.2550 C   0  0  0  0  0  0  0  0  0  0  0  0
   -0.0450   -7.7607   21.8191 N   0  0  0  0  0  0  0  0  0  0  0  0
    0.3213   -6.6741   21.0676 C   0  0  0  0  0  0  0  0  0  0  0  0
   -0.4335   -5.5707   20.8047 C   0  0  0  0  0  0  0  0  0  0  0  0
   -1.7194   -5.6349   21.2622 C   0  0  0  0  0  0  0  0  0  0  0  0
   -2.2232   -6.8061   21.8978 C   0  0  0  0  0  0  0  0  0  0  0  0
   -3.5918   -6.6778   22.2372 N   0  0  0  0  0  0  0  0  0  0  0  0
   -7.0765  -15.2651   24.5807 C   0  0  0  0  0  0  0  0  0  0  0  0
   -7.7359  -14.3305   24.4895 O   0  0  0  0  0  0  0  0  0  0  0  0
   -7.8380  -16.3580   25.2074 C   0  0  0  0  0  0  0  0  0  0  0  0
   -7.4218  -16.6885   26.5930 C   0  0  0  0  0  0  0  0  0  0  0  0
   -8.4031  -16.8966   27.4585 N   0  0  0  0  0  0  0  0  0  0  0  0
   -9.4593  -16.5347   26.7438 N   0  0  0  0  0  0  0  0  0  0  0  0
   -9.2191  -16.3419   25.3943 C   0  0  0  0  0  0  0  0  0  0  0  0
   -2.7434  -16.4690   25.1809 H   0  0  0  0  0  0  0  0  0  0  0  0
   -2.3471  -14.8246   25.5349 H   0  0  0  0  0  0  0  0  0  0  0  0
   -1.7528  -15.3622   24.1088 H   0  0  0  0  0  0  0  0  0  0  0  0
   -3.7832  -15.8280   23.3533 H   0  0  0  0  0  0  0  0  0  0  0  0
   -4.5355  -15.5284   22.8030 H   0  0  0  0  0  0  0  0  0  0  0  0
   -5.2788  -13.4569   23.4417 H   0  0  0  0  0  0  0  0  0  0  0  0
   -2.9439  -14.6125   23.0797 H   0  0  0  0  0  0  0  0  0  0  0  0
   -4.8392  -11.6395   24.2173 H   0  0  0  0  0  0  0  0  0  0  0  0
   -3.2151  -10.7382   21.6128 H   0  0  0  0  0  0  0  0  0  0  0  0
   -3.9352   -9.2914   22.5131 H   0  0  0  0  0  0  0  0  0  0  0  0
   -4.6941  -10.5148   21.8338 H   0  0  0  0  0  0  0  0  0  0  0  0
   -3.1281   -9.2173   24.3614 H   0  0  0  0  0  0  0  0  0  0  0  0
    1.2946   -6.6890   20.6148 H   0  0  0  0  0  0  0  0  0  0  0  0
   -0.0508   -4.7299   20.2427 H   0  0  0  0  0  0  0  0  0  0  0  0
   -2.3831   -4.7932   21.0756 H   0  0  0  0  0  0  0  0  0  0  0  0
   -4.1451   -6.2764   21.4833 H   0  0  0  0  0  0  0  0  0  0  0  0
   -3.9867   -7.5666   22.5373 H   0  0  0  0  0  0  0  0  0  0  0  0
   -6.4370  -16.6009   27.0351 H   0  0  0  0  0  0  0  0  0  0  0  0
  -10.3146  -16.4059   27.2665 H   0  0  0  0  0  0  0  0  0  0  0  0
   -9.9992  -15.9347   24.7682 H   0  0  0  0  0  0  0  0  0  0  0  0
  1  2  1  0
  2  3  1  0
  3  4  1  0
  4  5  1  0
  5  6  1  0
  5  7  1  0
  7  8  1  0
  8  9  2  0
  8 10  1  0
 10 11  2  0
 11 12  1  0
 12 13  2  0
 13 14  1  0
 14 15  2  0
 15 16  1  0
  3 17  1  0
 17 18  2  0
 17 19  1  0
 19 20  1  0
 20 21  2  0
 21 22  1  0
 22 23  1  0
 15 10  1  0
 23 19  2  0
  1 24  1  0
  1 25  1  0
  1 26  1  0
  2 27  1  0
  2 28  1  0
  4 29  1  0
  4 30  1  0
  5 31  1  0
  6 32  1  0
  6 33  1  0
  6 34  1  0
  7 35  1  0
 12 36  1  0
 13 37  1  0
 14 38  1  0
 16 39  1  0
 16 40  1  0
 20 41  1  0
 22 42  1  0
 23 43  1  0
M  END
>  <Energy>  (1547) 
1632.7522496188042

>  <compound_id>  (1547) 
15940

>  <target_id>  (1547) 
1

>  <reference_id>  (1547) 
123

>  <inspiration_ids>  (1547) 
[60, 123]

>  <energy_score>  (1547) 
1493.8753745171143

>  <distance_score>  (1547) 
13.039132400583625

>  <path>  (1547) 
/opt/xchem-fragalysis-2/maxwin/BulkDock/SCRATCH/511014/C15940-P123/C15940-P123.minimised.mol

>  <scratch_subdir>  (1547) 
/opt/xchem-fragalysis-2/maxwin/BulkDock/SCRATCH/511014/C15940-P123

>  <fragmenstein_runtime>  (1547) 
59.297900438308716

>  <fragmenstein_outcome>  (1547) 
too moved

>  <fragmenstein_mode>  (1547) 
expansion

>  <fragmenstein_error>  (1547) 


$$$$
C15943-P60
     RDKit          3D

 48 49  0  0  0  0  0  0  0  0999 V2000
    8.0286  -19.7015   20.0680 C   0  0  0  0  0  0  0  0  0  0  0  0
    8.2780  -18.5355   19.5712 N   0  0  0  0  0  0  0  0  0  0  0  0
    7.4185  -20.0713   20.5321 C   0  0  0  0  0  0  0  0  0  0  0  0
    5.6347  -19.8682   20.7191 C   0  0  0  0  0  0  0  0  0  0  0  0
    5.1372  -19.7218   19.3900 O   0  0  0  0  0  0  0  0  0  0  0  0
    5.0343  -21.1748   21.4320 C   0  0  0  0  0  0  0  0  0  0  0  0
    3.7183  -21.3350   22.2803 N   0  0  0  0  0  0  0  0  0  0  0  0
    3.0901  -21.2061   20.9336 C   0  0  0  0  0  0  0  0  0  0  0  0
    3.1772  -22.4890   22.9765 C   0  0  0  0  0  0  0  0  0  0  0  0
    3.5559  -23.6317   23.0022 O   0  0  0  0  0  0  0  0  0  0  0  0
    1.9371  -22.2620   23.8123 C   0  0  0  0  0  0  0  0  0  0  0  0
    0.8632  -21.3302   23.7918 C   0  0  0  0  0  0  0  0  0  0  0  0
   -0.1076  -21.5755   24.6913 N   0  0  0  0  0  0  0  0  0  0  0  0
    0.3270  -22.6734   25.3183 N   0  0  0  0  0  0  0  0  0  0  0  0
    1.5151  -23.1279   24.8269 C   0  0  0  0  0  0  0  0  0  0  0  0
    9.8244  -17.8938   19.5007 C   0  0  0  0  0  0  0  0  0  0  0  0
   10.8404  -18.2574   19.9315 O   0  0  0  0  0  0  0  0  0  0  0  0
    9.7759  -16.5649   18.6620 C   0  0  0  0  0  0  0  0  0  0  0  0
   11.0886  -15.6760   18.7247 C   0  0  0  0  0  0  0  0  0  0  0  0
   11.2666  -14.3783   17.9211 C   0  0  0  0  0  0  0  0  0  0  0  0
   10.7525  -14.1967   16.6380 C   0  0  0  0  0  0  0  0  0  0  0  0
   11.0319  -13.0171   15.9304 C   0  0  0  0  0  0  0  0  0  0  0  0
   11.8877  -12.0729   16.4752 C   0  0  0  0  0  0  0  0  0  0  0  0
   12.4084  -12.3424   17.7257 C   0  0  0  0  0  0  0  0  0  0  0  0
   12.0786  -13.4297   18.4720 N   0  0  0  0  0  0  0  0  0  0  0  0
    8.9953  -20.4527   19.7089 H   0  0  0  0  0  0  0  0  0  0  0  0
    9.0389  -19.5061   20.8106 H   0  0  0  0  0  0  0  0  0  0  0  0
    7.8881  -19.9802   18.8438 H   0  0  0  0  0  0  0  0  0  0  0  0
    7.3469  -21.2848   20.1214 H   0  0  0  0  0  0  0  0  0  0  0  0
    7.6357  -20.1157   21.7486 H   0  0  0  0  0  0  0  0  0  0  0  0
    5.4715  -18.9630   21.2990 H   0  0  0  0  0  0  0  0  0  0  0  0
    5.5670  -18.9239   19.0216 H   0  0  0  0  0  0  0  0  0  0  0  0
    5.7576  -21.3616   22.2404 H   0  0  0  0  0  0  0  0  0  0  0  0
    5.1958  -22.0675   20.8021 H   0  0  0  0  0  0  0  0  0  0  0  0
    3.3264  -22.0017   20.2116 H   0  0  0  0  0  0  0  0  0  0  0  0
    3.1391  -20.1876   20.5399 H   0  0  0  0  0  0  0  0  0  0  0  0
    2.0104  -21.3465   21.0891 H   0  0  0  0  0  0  0  0  0  0  0  0
    0.7278  -20.5005   23.1165 H   0  0  0  0  0  0  0  0  0  0  0  0
   -0.2423  -23.0659   26.0602 H   0  0  0  0  0  0  0  0  0  0  0  0
    1.9722  -24.0277   25.2136 H   0  0  0  0  0  0  0  0  0  0  0  0
    9.6039  -16.8646   17.6249 H   0  0  0  0  0  0  0  0  0  0  0  0
    8.9536  -15.9665   19.0421 H   0  0  0  0  0  0  0  0  0  0  0  0
   11.9287  -16.3212   18.4336 H   0  0  0  0  0  0  0  0  0  0  0  0
   11.2617  -15.4301   19.7804 H   0  0  0  0  0  0  0  0  0  0  0  0
   10.1338  -14.9602   16.1765 H   0  0  0  0  0  0  0  0  0  0  0  0
   10.6212  -12.8718   14.9346 H   0  0  0  0  0  0  0  0  0  0  0  0
   12.1830  -11.1928   15.9146 H   0  0  0  0  0  0  0  0  0  0  0  0
   13.1592  -11.7021   18.1784 H   0  0  0  0  0  0  0  0  0  0  0  0
  1  2  1  0
  2  3  1  0
  3  4  1  0
  4  5  1  0
  4  6  1  0
  6  7  1  0
  7  8  1  0
  7  9  1  0
  9 10  2  0
  9 11  1  0
 11 12  1  0
 12 13  2  0
 13 14  1  0
 14 15  1  0
  2 16  1  0
 16 17  2  0
 16 18  1  0
 18 19  1  0
 19 20  1  0
 20 21  2  0
 21 22  1  0
 22 23  2  0
 23 24  1  0
 24 25  2  0
 15 11  2  0
 25 20  1  0
  1 26  1  0
  1 27  1  0
  1 28  1  0
  3 29  1  0
  3 30  1  0
  4 31  1  0
  5 32  1  0
  6 33  1  0
  6 34  1  0
  8 35  1  0
  8 36  1  0
  8 37  1  0
 12 38  1  0
 14 39  1  0
 15 40  1  0
 18 41  1  0
 18 42  1  0
 19 43  1  0
 19 44  1  0
 21 45  1  0
 22 46  1  0
 23 47  1  0
 24 48  1  0
M  END
>  <Energy>  (1548) 
892.08395180297737

>  <compound_id>  (1548) 
15943

>  <target_id>  (1548) 
1

>  <reference_id>  (1548) 
60

>  <inspiration_ids>  (1548) 
[60, 123]

>  <energy_score>  (1548) 
804.5747204501807

>  <distance_score>  (1548) 
14.91355897403257

>  <path>  (1548) 
/opt/xchem-fragalysis-2/maxwin/BulkDock/SCRATCH/511014/C15943-P60/C15943-P60.minimised.mol

>  <scratch_subdir>  (1548) 
/opt/xchem-fragalysis-2/maxwin/BulkDock/SCRATCH/511014/C15943-P60

>  <fragmenstein_runtime>  (1548) 
58.70714282989502

>  <fragmenstein_outcome>  (1548) 
too moved

>  <fragmenstein_mode>  (1548) 
expansion

>  <fragmenstein_error>  (1548) 


$$$$
C15943-P123
     RDKit          3D

 48 49  0  0  0  0  0  0  0  0999 V2000
    2.4025  -11.8163   23.1316 C   0  0  0  0  0  0  0  0  0  0  0  0
    3.2854  -10.5594   22.7371 N   0  0  0  0  0  0  0  0  0  0  0  0
    1.5235  -11.7484   23.0759 C   0  0  0  0  0  0  0  0  0  0  0  0
   -0.3397  -12.8316   22.6589 C   0  0  0  0  0  0  0  0  0  0  0  0
   -0.9989  -13.9536   23.6201 O   0  0  0  0  0  0  0  0  0  0  0  0
   -1.8872  -12.3618   21.7744 C   0  0  0  0  0  0  0  0  0  0  0  0
   -3.0421  -13.3206   22.4362 N   0  0  0  0  0  0  0  0  0  0  0  0
   -3.7976  -12.8845   21.2225 C   0  0  0  0  0  0  0  0  0  0  0  0
   -3.8588  -13.1379   23.6243 C   0  0  0  0  0  0  0  0  0  0  0  0
   -3.9542  -12.1966   24.3667 O   0  0  0  0  0  0  0  0  0  0  0  0
   -4.6143  -14.3731   24.0134 C   0  0  0  0  0  0  0  0  0  0  0  0
   -5.5587  -14.5090   25.0842 C   0  0  0  0  0  0  0  0  0  0  0  0
   -6.0067  -15.7589   25.2630 N   0  0  0  0  0  0  0  0  0  0  0  0
   -5.3221  -16.4596   24.3463 N   0  0  0  0  0  0  0  0  0  0  0  0
   -4.5102  -15.6797   23.5599 C   0  0  0  0  0  0  0  0  0  0  0  0
    3.1729   -8.4824   22.8254 C   0  0  0  0  0  0  0  0  0  0  0  0
    2.2877   -7.7707   23.1414 O   0  0  0  0  0  0  0  0  0  0  0  0
    4.9433   -7.2379   22.3144 C   0  0  0  0  0  0  0  0  0  0  0  0
    6.3446   -5.8085   21.3780 C   0  0  0  0  0  0  0  0  0  0  0  0
    8.0239   -4.7231   20.6033 C   0  0  0  0  0  0  0  0  0  0  0  0
    9.7176   -5.3727   20.0721 C   0  0  0  0  0  0  0  0  0  0  0  0
   11.4786   -5.2756   20.3537 C   0  0  0  0  0  0  0  0  0  0  0  0
   12.0661   -4.2397   20.9796 C   0  0  0  0  0  0  0  0  0  0  0  0
   10.9494   -3.4553   21.1409 C   0  0  0  0  0  0  0  0  0  0  0  0
    9.0276   -3.5090   20.6919 N   0  0  0  0  0  0  0  0  0  0  0  0
    2.8561  -12.9599   23.4301 H   0  0  0  0  0  0  0  0  0  0  0  0
    3.2133  -12.3018   22.3761 H   0  0  0  0  0  0  0  0  0  0  0  0
    2.8837  -11.9436   24.1452 H   0  0  0  0  0  0  0  0  0  0  0  0
    0.7638  -11.0585   22.3946 H   0  0  0  0  0  0  0  0  0  0  0  0
    1.3302  -11.5721   24.3229 H   0  0  0  0  0  0  0  0  0  0  0  0
   -0.2038  -13.7886   22.1762 H   0  0  0  0  0  0  0  0  0  0  0  0
   -1.7939  -14.2748   23.1517 H   0  0  0  0  0  0  0  0  0  0  0  0
   -1.7286  -12.5401   20.7127 H   0  0  0  0  0  0  0  0  0  0  0  0
   -2.0998  -11.2927   21.9369 H   0  0  0  0  0  0  0  0  0  0  0  0
   -3.4192  -13.3323   20.2938 H   0  0  0  0  0  0  0  0  0  0  0  0
   -4.8041  -13.3176   21.3197 H   0  0  0  0  0  0  0  0  0  0  0  0
   -3.9896  -11.8031   21.1679 H   0  0  0  0  0  0  0  0  0  0  0  0
   -5.9157  -13.7254   25.7419 H   0  0  0  0  0  0  0  0  0  0  0  0
   -5.4524  -17.4657   24.3075 H   0  0  0  0  0  0  0  0  0  0  0  0
   -3.8989  -16.1282   22.7900 H   0  0  0  0  0  0  0  0  0  0  0  0
    5.3402   -7.1066   23.3449 H   0  0  0  0  0  0  0  0  0  0  0  0
    4.2597   -6.3517   22.3287 H   0  0  0  0  0  0  0  0  0  0  0  0
    6.0119   -4.9336   21.9607 H   0  0  0  0  0  0  0  0  0  0  0  0
    5.8319   -5.7836   20.4022 H   0  0  0  0  0  0  0  0  0  0  0  0
    9.6359   -6.1558   19.3558 H   0  0  0  0  0  0  0  0  0  0  0  0
   12.1979   -6.0133   20.0733 H   0  0  0  0  0  0  0  0  0  0  0  0
   13.0567   -4.1072   21.3534 H   0  0  0  0  0  0  0  0  0  0  0  0
   11.1038   -3.0747   22.1872 H   0  0  0  0  0  0  0  0  0  0  0  0
  1  2  1  0
  2  3  1  0
  3  4  1  0
  4  5  1  0
  4  6  1  0
  6  7  1  0
  7  8  1  0
  7  9  1  0
  9 10  2  0
  9 11  1  0
 11 12  1  0
 12 13  2  0
 13 14  1  0
 14 15  1  0
  2 16  1  0
 16 17  2  0
 16 18  1  0
 18 19  1  0
 19 20  1  0
 20 21  2  0
 21 22  1  0
 22 23  2  0
 23 24  1  0
 24 25  2  0
 15 11  2  0
 25 20  1  0
  1 26  1  0
  1 27  1  0
  1 28  1  0
  3 29  1  0
  3 30  1  0
  4 31  1  0
  5 32  1  0
  6 33  1  0
  6 34  1  0
  8 35  1  0
  8 36  1  0
  8 37  1  0
 12 38  1  0
 14 39  1  0
 15 40  1  0
 18 41  1  0
 18 42  1  0
 19 43  1  0
 19 44  1  0
 21 45  1  0
 22 46  1  0
 23 47  1  0
 24 48  1  0
M  END
>  <Energy>  (1549) 
2149.4395808147947

>  <compound_id>  (1549) 
15943

>  <target_id>  (1549) 
1

>  <reference_id>  (1549) 
123

>  <inspiration_ids>  (1549) 
[60, 123]

>  <energy_score>  (1549) 
2061.9303494620262

>  <distance_score>  (1549) 
12.390119707331618

>  <path>  (1549) 
/opt/xchem-fragalysis-2/maxwin/BulkDock/SCRATCH/511014/C15943-P123/C15943-P123.minimised.mol

>  <scratch_subdir>  (1549) 
/opt/xchem-fragalysis-2/maxwin/BulkDock/SCRATCH/511014/C15943-P123

>  <fragmenstein_runtime>  (1549) 
45.62845492362976

>  <fragmenstein_outcome>  (1549) 
too moved

>  <fragmenstein_mode>  (1549) 
expansion

>  <fragmenstein_error>  (1549) 


$$$$
C15944-P60
     RDKit          3D

 48 50  0  0  0  0  0  0  0  0999 V2000
    3.8683   -2.9433   20.4397 C   0  0  0  0  0  0  0  0  0  0  0  0
    3.7755   -4.4271   20.3476 N   0  0  0  0  0  0  0  0  0  0  0  0
    2.4604   -4.8327   19.6020 C   0  0  0  0  0  0  0  0  0  0  0  0
    2.2590   -5.0283   18.4182 O   0  0  0  0  0  0  0  0  0  0  0  0
    1.0524   -5.2193   20.5048 C   0  0  0  0  0  0  0  0  0  0  0  0
    0.6158   -4.9864   21.8105 C   0  0  0  0  0  0  0  0  0  0  0  0
   -0.4339   -5.8136   22.4668 C   0  0  0  0  0  0  0  0  0  0  0  0
   -1.0733   -6.9038   21.8493 C   0  0  0  0  0  0  0  0  0  0  0  0
   -2.1132   -7.7894   22.4721 C   0  0  0  0  0  0  0  0  0  0  0  0
   -2.7166   -9.0049   22.0167 C   0  0  0  0  0  0  0  0  0  0  0  0
   -3.5643   -9.5609   22.9030 N   0  0  0  0  0  0  0  0  0  0  0  0
   -3.6260   -8.6435   23.8828 N   0  0  0  0  0  0  0  0  0  0  0  0
   -2.7482   -7.6035   23.6935 C   0  0  0  0  0  0  0  0  0  0  0  0
   -0.6013   -7.0611   20.5514 C   0  0  0  0  0  0  0  0  0  0  0  0
    0.3774   -6.2678   19.8958 N   0  0  0  0  0  0  0  0  0  0  0  0
    5.5794   -4.2405   19.6938 C   0  0  0  0  0  0  0  0  0  0  0  0
    7.6339   -4.5634   20.2562 C   0  0  0  0  0  0  0  0  0  0  0  0
    9.5546   -5.1749   19.9442 N   0  0  0  0  0  0  0  0  0  0  0  0
   11.1722   -4.6860   20.7522 C   0  0  0  0  0  0  0  0  0  0  0  0
   11.4095   -3.8192   21.5963 O   0  0  0  0  0  0  0  0  0  0  0  0
   12.4723   -5.3207   20.2845 C   0  0  0  0  0  0  0  0  0  0  0  0
   13.2271   -6.1856   21.2791 C   0  0  0  0  0  0  0  0  0  0  0  0
   13.3996   -5.5402   22.4589 F   0  0  0  0  0  0  0  0  0  0  0  0
    4.9289   -5.4541   18.4216 C   0  0  0  0  0  0  0  0  0  0  0  0
    5.9432   -6.1895   17.5829 C   0  0  0  0  0  0  0  0  0  0  0  0
    4.8323   -6.8739   18.1821 C   0  0  0  0  0  0  0  0  0  0  0  0
    3.7142   -2.4634   19.4629 H   0  0  0  0  0  0  0  0  0  0  0  0
    2.9739   -2.6450   21.0052 H   0  0  0  0  0  0  0  0  0  0  0  0
    4.7015   -2.5386   21.0270 H   0  0  0  0  0  0  0  0  0  0  0  0
    1.1043   -4.2143   22.3973 H   0  0  0  0  0  0  0  0  0  0  0  0
   -0.6785   -5.5580   23.4967 H   0  0  0  0  0  0  0  0  0  0  0  0
   -2.5220   -9.5267   21.0856 H   0  0  0  0  0  0  0  0  0  0  0  0
   -4.2716   -8.7903   24.6535 H   0  0  0  0  0  0  0  0  0  0  0  0
   -2.6692   -6.8196   24.4330 H   0  0  0  0  0  0  0  0  0  0  0  0
   -0.9657   -7.8613   19.9077 H   0  0  0  0  0  0  0  0  0  0  0  0
    5.4297   -3.2099   19.3400 H   0  0  0  0  0  0  0  0  0  0  0  0
    7.1874   -5.4715   19.8729 H   0  0  0  0  0  0  0  0  0  0  0  0
    7.8521   -4.1160   21.2278 H   0  0  0  0  0  0  0  0  0  0  0  0
    9.6921   -5.9683   19.3638 H   0  0  0  0  0  0  0  0  0  0  0  0
   12.5175   -5.5271   19.2392 H   0  0  0  0  0  0  0  0  0  0  0  0
   13.1304   -4.4293   20.2410 H   0  0  0  0  0  0  0  0  0  0  0  0
   12.7150   -7.1263   21.4911 H   0  0  0  0  0  0  0  0  0  0  0  0
   14.2289   -6.4167   20.9049 H   0  0  0  0  0  0  0  0  0  0  0  0
    4.1920   -4.9181   17.8038 H   0  0  0  0  0  0  0  0  0  0  0  0
    5.9540   -6.2146   16.5192 H   0  0  0  0  0  0  0  0  0  0  0  0
    6.8760   -6.2896   18.0656 H   0  0  0  0  0  0  0  0  0  0  0  0
    3.8914   -7.0628   17.6648 H   0  0  0  0  0  0  0  0  0  0  0  0
    5.2471   -7.6479   18.7782 H   0  0  0  0  0  0  0  0  0  0  0  0
  1  2  1  0
  2  3  1  0
  3  4  2  0
  3  5  1  0
  5  6  2  0
  6  7  1  0
  7  8  2  0
  8  9  1  0
  9 10  1  0
 10 11  2  0
 11 12  1  0
 12 13  1  0
  8 14  1  0
 14 15  2  0
  2 16  1  0
 16 17  1  0
 17 18  1  0
 18 19  1  0
 19 20  2  0
 19 21  1  0
 21 22  1  0
 22 23  1  0
 16 24  1  0
 24 25  1  0
 25 26  1  0
 15  5  1  0
 26 24  1  0
 13  9  2  0
  1 27  1  0
  1 28  1  0
  1 29  1  0
  6 30  1  0
  7 31  1  0
 10 32  1  0
 12 33  1  0
 13 34  1  0
 14 35  1  0
 16 36  1  0
 17 37  1  0
 17 38  1  0
 18 39  1  0
 21 40  1  0
 21 41  1  0
 22 42  1  0
 22 43  1  0
 24 44  1  0
 25 45  1  0
 25 46  1  0
 26 47  1  0
 26 48  1  0
M  END
>  <Energy>  (1550) 
686.85319098940852

>  <compound_id>  (1550) 
15944

>  <target_id>  (1550) 
1

>  <reference_id>  (1550) 
60

>  <inspiration_ids>  (1550) 
[60, 123]

>  <energy_score>  (1550) 
564.8915638251924

>  <distance_score>  (1550) 
14.954440849422546

>  <path>  (1550) 
/opt/xchem-fragalysis-2/maxwin/BulkDock/SCRATCH/511014/C15944-P60/C15944-P60.minimised.mol

>  <scratch_subdir>  (1550) 
/opt/xchem-fragalysis-2/maxwin/BulkDock/SCRATCH/511014/C15944-P60

>  <fragmenstein_runtime>  (1550) 
37.036247968673706

>  <fragmenstein_outcome>  (1550) 
too moved

>  <fragmenstein_mode>  (1550) 
expansion

>  <fragmenstein_error>  (1550) 


$$$$
C15944-P123
     RDKit          3D

 48 50  0  0  0  0  0  0  0  0999 V2000
    4.2382  -13.3185   19.5793 C   0  0  0  0  0  0  0  0  0  0  0  0
    3.9106  -12.8497   21.0862 N   0  0  0  0  0  0  0  0  0  0  0  0
    3.1187  -14.2987   22.4001 C   0  0  0  0  0  0  0  0  0  0  0  0
    3.9410  -15.0227   23.1249 O   0  0  0  0  0  0  0  0  0  0  0  0
    1.1515  -14.7986   22.9884 C   0  0  0  0  0  0  0  0  0  0  0  0
   -0.1970  -15.1627   22.5105 C   0  0  0  0  0  0  0  0  0  0  0  0
   -1.4339  -15.8620   23.1255 C   0  0  0  0  0  0  0  0  0  0  0  0
   -1.6128  -15.8619   24.4741 C   0  0  0  0  0  0  0  0  0  0  0  0
   -2.6583  -16.5601   25.2419 C   0  0  0  0  0  0  0  0  0  0  0  0
   -3.8333  -17.2633   24.8422 C   0  0  0  0  0  0  0  0  0  0  0  0
   -4.4985  -17.8324   25.8572 N   0  0  0  0  0  0  0  0  0  0  0  0
   -3.7453  -17.5320   26.9262 N   0  0  0  0  0  0  0  0  0  0  0  0
   -2.6445  -16.7761   26.6110 C   0  0  0  0  0  0  0  0  0  0  0  0
   -0.6412  -15.0280   24.9414 C   0  0  0  0  0  0  0  0  0  0  0  0
    0.5807  -14.4926   24.1786 N   0  0  0  0  0  0  0  0  0  0  0  0
    5.9063  -12.1050   20.7025 C   0  0  0  0  0  0  0  0  0  0  0  0
    7.3052  -10.7832   19.7975 C   0  0  0  0  0  0  0  0  0  0  0  0
    8.8617   -9.4246   19.5917 N   0  0  0  0  0  0  0  0  0  0  0  0
   10.2407   -8.7405   20.9730 C   0  0  0  0  0  0  0  0  0  0  0  0
   10.2246   -9.2561   22.0978 O   0  0  0  0  0  0  0  0  0  0  0  0
   11.4184   -7.8004   20.9154 C   0  0  0  0  0  0  0  0  0  0  0  0
   12.7479   -8.4520   21.6875 C   0  0  0  0  0  0  0  0  0  0  0  0
   13.7899   -7.5891   21.4934 F   0  0  0  0  0  0  0  0  0  0  0  0
    6.6527  -11.1310   18.9777 C   0  0  0  0  0  0  0  0  0  0  0  0
    8.7155  -11.0210   18.2713 C   0  0  0  0  0  0  0  0  0  0  0  0
    7.8565  -10.4035   17.5101 C   0  0  0  0  0  0  0  0  0  0  0  0
    5.2505  -13.7154   19.4389 H   0  0  0  0  0  0  0  0  0  0  0  0
    4.1984  -12.5173   18.8955 H   0  0  0  0  0  0  0  0  0  0  0  0
    3.5294  -13.9900   19.0384 H   0  0  0  0  0  0  0  0  0  0  0  0
   -0.7075  -14.1747   22.3126 H   0  0  0  0  0  0  0  0  0  0  0  0
   -2.1633  -16.2760   22.4352 H   0  0  0  0  0  0  0  0  0  0  0  0
   -4.2247  -17.3842   23.8401 H   0  0  0  0  0  0  0  0  0  0  0  0
   -4.0349  -17.8746   27.8375 H   0  0  0  0  0  0  0  0  0  0  0  0
   -1.9469  -16.4832   27.3832 H   0  0  0  0  0  0  0  0  0  0  0  0
   -0.6054  -14.6804   25.9730 H   0  0  0  0  0  0  0  0  0  0  0  0
    6.4326  -13.0367   20.6801 H   0  0  0  0  0  0  0  0  0  0  0  0
    8.2187  -11.3306   19.8595 H   0  0  0  0  0  0  0  0  0  0  0  0
    7.7044  -11.9837   20.1144 H   0  0  0  0  0  0  0  0  0  0  0  0
    8.9271   -8.8844   18.7852 H   0  0  0  0  0  0  0  0  0  0  0  0
   11.2055   -7.5803   21.9545 H   0  0  0  0  0  0  0  0  0  0  0  0
   11.7008   -6.7472   20.7432 H   0  0  0  0  0  0  0  0  0  0  0  0
   13.0163   -9.4495   21.3173 H   0  0  0  0  0  0  0  0  0  0  0  0
   12.6077   -8.5421   22.7738 H   0  0  0  0  0  0  0  0  0  0  0  0
    5.9984  -11.9255   18.5679 H   0  0  0  0  0  0  0  0  0  0  0  0
    9.3612  -11.6991   17.6287 H   0  0  0  0  0  0  0  0  0  0  0  0
    9.7354  -10.7013   18.4838 H   0  0  0  0  0  0  0  0  0  0  0  0
    8.5314  -10.7188   16.6041 H   0  0  0  0  0  0  0  0  0  0  0  0
    7.8318  -10.0926   16.4311 H   0  0  0  0  0  0  0  0  0  0  0  0
  1  2  1  0
  2  3  1  0
  3  4  2  0
  3  5  1  0
  5  6  2  0
  6  7  1  0
  7  8  2  0
  8  9  1  0
  9 10  1  0
 10 11  2  0
 11 12  1  0
 12 13  1  0
  8 14  1  0
 14 15  2  0
  2 16  1  0
 16 17  1  0
 17 18  1  0
 18 19  1  0
 19 20  2  0
 19 21  1  0
 21 22  1  0
 22 23  1  0
 16 24  1  0
 24 25  1  0
 25 26  1  0
 15  5  1  0
 26 24  1  0
 13  9  2  0
  1 27  1  0
  1 28  1  0
  1 29  1  0
  6 30  1  0
  7 31  1  0
 10 32  1  0
 12 33  1  0
 13 34  1  0
 14 35  1  0
 16 36  1  0
 17 37  1  0
 17 38  1  0
 18 39  1  0
 21 40  1  0
 21 41  1  0
 22 42  1  0
 22 43  1  0
 24 44  1  0
 25 45  1  0
 25 46  1  0
 26 47  1  0
 26 48  1  0
M  END
>  <Energy>  (1551) 
2188.7345525074211

>  <compound_id>  (1551) 
15944

>  <target_id>  (1551) 
1

>  <reference_id>  (1551) 
123

>  <inspiration_ids>  (1551) 
[60, 123]

>  <energy_score>  (1551) 
2066.7729253432226

>  <distance_score>  (1551) 
11.727595051368924

>  <path>  (1551) 
/opt/xchem-fragalysis-2/maxwin/BulkDock/SCRATCH/511014/C15944-P123/C15944-P123.minimised.mol

>  <scratch_subdir>  (1551) 
/opt/xchem-fragalysis-2/maxwin/BulkDock/SCRATCH/511014/C15944-P123

>  <fragmenstein_runtime>  (1551) 
35.87147521972656

>  <fragmenstein_outcome>  (1551) 
too moved

>  <fragmenstein_mode>  (1551) 
expansion

>  <fragmenstein_error>  (1551) 


$$$$
C15945-P60
     RDKit          3D

 48 50  0  0  0  0  0  0  0  0999 V2000
    1.0027  -12.3359   26.5894 C   0  0  0  0  0  0  0  0  0  0  0  0
    0.9455  -13.7200   26.1350 N   0  0  0  0  0  0  0  0  0  0  0  0
    1.8538  -12.9900   24.5724 C   0  0  0  0  0  0  0  0  0  0  0  0
    3.0825  -13.4404   23.0928 C   0  0  0  0  0  0  0  0  0  0  0  0
    3.8307  -13.2448   21.1314 C   0  0  0  0  0  0  0  0  0  0  0  0
    5.4819  -12.8289   20.0965 N   0  0  0  0  0  0  0  0  0  0  0  0
    4.4386  -12.5637   19.2988 C   0  0  0  0  0  0  0  0  0  0  0  0
    6.6268  -11.4402   20.1871 C   0  0  0  0  0  0  0  0  0  0  0  0
    6.3096  -10.8203   21.0395 O   0  0  0  0  0  0  0  0  0  0  0  0
    8.1899  -10.4143   19.2074 C   0  0  0  0  0  0  0  0  0  0  0  0
    8.9212  -11.0223   18.0511 C   0  0  0  0  0  0  0  0  0  0  0  0
   10.2053  -11.0847   17.3933 C   0  0  0  0  0  0  0  0  0  0  0  0
   11.2141  -10.8073   18.2770 C   0  0  0  0  0  0  0  0  0  0  0  0
   11.0898   -9.7264   19.2394 N   0  0  0  0  0  0  0  0  0  0  0  0
    9.4898   -8.9636   19.5970 C   0  0  0  0  0  0  0  0  0  0  0  0
   10.5037   -8.2841   21.1279 C   0  0  0  0  0  0  0  0  0  0  0  0
   11.9339   -8.6349   21.7238 C   0  0  0  0  0  0  0  0  0  0  0  0
   10.7919   -8.6820   22.6677 C   0  0  0  0  0  0  0  0  0  0  0  0
   -0.4500  -14.2364   26.2951 C   0  0  0  0  0  0  0  0  0  0  0  0
   -1.3732  -14.2376   25.5266 O   0  0  0  0  0  0  0  0  0  0  0  0
   -0.7750  -14.9219   27.5933 C   0  0  0  0  0  0  0  0  0  0  0  0
   -2.0664  -15.4600   27.9345 C   0  0  0  0  0  0  0  0  0  0  0  0
   -2.0849  -16.1324   29.0899 N   0  0  0  0  0  0  0  0  0  0  0  0
   -0.8111  -16.0510   29.5020 N   0  0  0  0  0  0  0  0  0  0  0  0
    0.0010  -15.3345   28.6569 C   0  0  0  0  0  0  0  0  0  0  0  0
    1.4598  -12.3456   27.5925 H   0  0  0  0  0  0  0  0  0  0  0  0
    1.1315  -11.4244   26.0530 H   0  0  0  0  0  0  0  0  0  0  0  0
   -0.0243  -12.1147   26.9449 H   0  0  0  0  0  0  0  0  0  0  0  0
    1.7391  -11.9422   24.3488 H   0  0  0  0  0  0  0  0  0  0  0  0
    1.1414  -13.6576   24.0516 H   0  0  0  0  0  0  0  0  0  0  0  0
    3.4393  -12.4458   23.2827 H   0  0  0  0  0  0  0  0  0  0  0  0
    3.5051  -14.3558   23.5294 H   0  0  0  0  0  0  0  0  0  0  0  0
    3.0265  -13.6739   20.5881 H   0  0  0  0  0  0  0  0  0  0  0  0
    3.8633  -12.2171   21.4181 H   0  0  0  0  0  0  0  0  0  0  0  0
    4.3908  -13.5992   18.9444 H   0  0  0  0  0  0  0  0  0  0  0  0
    5.2073  -12.0008   18.7721 H   0  0  0  0  0  0  0  0  0  0  0  0
    3.8539  -12.4843   18.3460 H   0  0  0  0  0  0  0  0  0  0  0  0
    9.2697  -11.7784   18.7953 H   0  0  0  0  0  0  0  0  0  0  0  0
   10.3323  -11.7329   16.5323 H   0  0  0  0  0  0  0  0  0  0  0  0
   12.1650  -11.3421   18.2567 H   0  0  0  0  0  0  0  0  0  0  0  0
   10.6319   -7.2594   20.9402 H   0  0  0  0  0  0  0  0  0  0  0  0
   12.6451   -7.8195   21.8601 H   0  0  0  0  0  0  0  0  0  0  0  0
   12.4638   -9.5691   21.5462 H   0  0  0  0  0  0  0  0  0  0  0  0
   10.8557   -7.9605   23.4766 H   0  0  0  0  0  0  0  0  0  0  0  0
   10.5911   -9.6396   23.1433 H   0  0  0  0  0  0  0  0  0  0  0  0
   -2.9764  -15.3902   27.3503 H   0  0  0  0  0  0  0  0  0  0  0  0
   -0.5576  -16.5101   30.3706 H   0  0  0  0  0  0  0  0  0  0  0  0
    1.0555  -15.2198   28.8613 H   0  0  0  0  0  0  0  0  0  0  0  0
  1  2  1  0
  2  3  1  0
  3  4  1  0
  4  5  1  0
  5  6  1  0
  6  7  1  0
  6  8  1  0
  8  9  2  0
  8 10  1  0
 10 11  2  0
 11 12  1  0
 12 13  2  0
 13 14  1  0
 14 15  2  0
 15 16  1  0
 16 17  1  0
 17 18  1  0
  2 19  1  0
 19 20  2  0
 19 21  1  0
 21 22  1  0
 22 23  2  0
 23 24  1  0
 24 25  1  0
 15 10  1  0
 18 16  1  0
 25 21  2  0
  1 26  1  0
  1 27  1  0
  1 28  1  0
  3 29  1  0
  3 30  1  0
  4 31  1  0
  4 32  1  0
  5 33  1  0
  5 34  1  0
  7 35  1  0
  7 36  1  0
  7 37  1  0
 11 38  1  0
 12 39  1  0
 13 40  1  0
 16 41  1  0
 17 42  1  0
 17 43  1  0
 18 44  1  0
 18 45  1  0
 22 46  1  0
 24 47  1  0
 25 48  1  0
M  END
>  <Energy>  (1552) 
1299.1410788738617

>  <compound_id>  (1552) 
15945

>  <target_id>  (1552) 
1

>  <reference_id>  (1552) 
60

>  <inspiration_ids>  (1552) 
[60, 123]

>  <energy_score>  (1552) 
1222.7886407406058

>  <distance_score>  (1552) 
12.319704468648009

>  <path>  (1552) 
/opt/xchem-fragalysis-2/maxwin/BulkDock/SCRATCH/511014/C15945-P60/C15945-P60.minimised.mol

>  <scratch_subdir>  (1552) 
/opt/xchem-fragalysis-2/maxwin/BulkDock/SCRATCH/511014/C15945-P60

>  <fragmenstein_runtime>  (1552) 
51.70848798751831

>  <fragmenstein_outcome>  (1552) 
too moved

>  <fragmenstein_mode>  (1552) 
expansion

>  <fragmenstein_error>  (1552) 


$$$$
C15945-P123
     RDKit          3D

 48 50  0  0  0  0  0  0  0  0999 V2000
   -4.8303  -20.9932   20.2995 C   0  0  0  0  0  0  0  0  0  0  0  0
   -3.4942  -21.4440   20.8170 N   0  0  0  0  0  0  0  0  0  0  0  0
   -3.0656  -21.0966   19.3769 C   0  0  0  0  0  0  0  0  0  0  0  0
   -2.7983  -19.6136   18.9626 C   0  0  0  0  0  0  0  0  0  0  0  0
   -1.4059  -19.3950   18.1221 C   0  0  0  0  0  0  0  0  0  0  0  0
   -0.3619  -18.0044   18.1447 N   0  0  0  0  0  0  0  0  0  0  0  0
   -0.7299  -18.0797   19.8129 C   0  0  0  0  0  0  0  0  0  0  0  0
    1.5333  -17.7966   17.8654 C   0  0  0  0  0  0  0  0  0  0  0  0
    2.1167  -18.8409   17.7449 O   0  0  0  0  0  0  0  0  0  0  0  0
    2.6918  -16.0023   17.8913 C   0  0  0  0  0  0  0  0  0  0  0  0
    2.1732  -14.8744   17.4083 C   0  0  0  0  0  0  0  0  0  0  0  0
    2.3396  -14.1731   18.4226 C   0  0  0  0  0  0  0  0  0  0  0  0
    3.4956  -13.6094   18.2083 C   0  0  0  0  0  0  0  0  0  0  0  0
    4.3423  -14.4499   17.7109 N   0  0  0  0  0  0  0  0  0  0  0  0
    4.2935  -15.3792   18.4445 C   0  0  0  0  0  0  0  0  0  0  0  0
    5.3046  -13.8781   19.4094 C   0  0  0  0  0  0  0  0  0  0  0  0
    4.6773  -12.9163   20.5117 C   0  0  0  0  0  0  0  0  0  0  0  0
    5.6289  -12.4418   19.5508 C   0  0  0  0  0  0  0  0  0  0  0  0
   -3.6240  -22.7141   21.4742 C   0  0  0  0  0  0  0  0  0  0  0  0
   -3.5181  -23.8302   21.0417 O   0  0  0  0  0  0  0  0  0  0  0  0
   -3.8891  -22.5950   22.9275 C   0  0  0  0  0  0  0  0  0  0  0  0
   -3.7429  -21.5254   23.8426 C   0  0  0  0  0  0  0  0  0  0  0  0
   -4.0185  -21.8607   25.1120 N   0  0  0  0  0  0  0  0  0  0  0  0
   -4.3902  -23.1483   25.0163 N   0  0  0  0  0  0  0  0  0  0  0  0
   -4.3324  -23.6279   23.7436 C   0  0  0  0  0  0  0  0  0  0  0  0
   -5.2861  -21.6723   19.5625 H   0  0  0  0  0  0  0  0  0  0  0  0
   -4.9091  -19.9303   20.0451 H   0  0  0  0  0  0  0  0  0  0  0  0
   -5.5146  -21.0806   21.1580 H   0  0  0  0  0  0  0  0  0  0  0  0
   -3.5747  -21.6790   18.5891 H   0  0  0  0  0  0  0  0  0  0  0  0
   -2.0854  -21.5902   19.3631 H   0  0  0  0  0  0  0  0  0  0  0  0
   -2.9222  -18.9586   19.8260 H   0  0  0  0  0  0  0  0  0  0  0  0
   -3.6145  -19.3155   18.2879 H   0  0  0  0  0  0  0  0  0  0  0  0
   -0.9932  -20.2714   17.5892 H   0  0  0  0  0  0  0  0  0  0  0  0
   -1.9036  -19.0721   17.1929 H   0  0  0  0  0  0  0  0  0  0  0  0
    0.0545  -17.5380   20.3440 H   0  0  0  0  0  0  0  0  0  0  0  0
   -1.0677  -18.9383   20.3935 H   0  0  0  0  0  0  0  0  0  0  0  0
   -1.5728  -17.3709   19.8567 H   0  0  0  0  0  0  0  0  0  0  0  0
    1.4378  -14.5542   16.6892 H   0  0  0  0  0  0  0  0  0  0  0  0
    2.4140  -14.6094   19.4436 H   0  0  0  0  0  0  0  0  0  0  0  0
    3.6154  -12.5439   18.0262 H   0  0  0  0  0  0  0  0  0  0  0  0
    6.2544  -14.1742   19.5753 H   0  0  0  0  0  0  0  0  0  0  0  0
    3.6644  -13.1591   20.6956 H   0  0  0  0  0  0  0  0  0  0  0  0
    4.7902  -12.0647   21.1474 H   0  0  0  0  0  0  0  0  0  0  0  0
    5.6009  -11.7146   18.8031 H   0  0  0  0  0  0  0  0  0  0  0  0
    6.5160  -12.1118   20.0967 H   0  0  0  0  0  0  0  0  0  0  0  0
   -3.4126  -20.5179   23.6300 H   0  0  0  0  0  0  0  0  0  0  0  0
   -4.6823  -23.6344   25.8559 H   0  0  0  0  0  0  0  0  0  0  0  0
   -4.5875  -24.6523   23.5127 H   0  0  0  0  0  0  0  0  0  0  0  0
  1  2  1  0
  2  3  1  0
  3  4  1  0
  4  5  1  0
  5  6  1  0
  6  7  1  0
  6  8  1  0
  8  9  2  0
  8 10  1  0
 10 11  2  0
 11 12  1  0
 12 13  2  0
 13 14  1  0
 14 15  2  0
 15 16  1  0
 16 17  1  0
 17 18  1  0
  2 19  1  0
 19 20  2  0
 19 21  1  0
 21 22  1  0
 22 23  2  0
 23 24  1  0
 24 25  1  0
 15 10  1  0
 18 16  1  0
 25 21  2  0
  1 26  1  0
  1 27  1  0
  1 28  1  0
  3 29  1  0
  3 30  1  0
  4 31  1  0
  4 32  1  0
  5 33  1  0
  5 34  1  0
  7 35  1  0
  7 36  1  0
  7 37  1  0
 11 38  1  0
 12 39  1  0
 13 40  1  0
 16 41  1  0
 17 42  1  0
 17 43  1  0
 18 44  1  0
 18 45  1  0
 22 46  1  0
 24 47  1  0
 25 48  1  0
M  END
>  <Energy>  (1553) 
978.21951320013841

>  <compound_id>  (1553) 
15945

>  <target_id>  (1553) 
1

>  <reference_id>  (1553) 
123

>  <inspiration_ids>  (1553) 
[60, 123]

>  <energy_score>  (1553) 
901.8670750669041

>  <distance_score>  (1553) 
13.273325902659101

>  <path>  (1553) 
/opt/xchem-fragalysis-2/maxwin/BulkDock/SCRATCH/511014/C15945-P123/C15945-P123.minimised.mol

>  <scratch_subdir>  (1553) 
/opt/xchem-fragalysis-2/maxwin/BulkDock/SCRATCH/511014/C15945-P123

>  <fragmenstein_runtime>  (1553) 
61.85493564605713

>  <fragmenstein_outcome>  (1553) 
too moved

>  <fragmenstein_mode>  (1553) 
expansion

>  <fragmenstein_error>  (1553) 


$$$$
C15946-P60
     RDKit          3D

 45 47  0  0  0  0  0  0  0  0999 V2000
    3.9861  -21.3805   13.9372 C   0  0  0  0  0  0  0  0  0  0  0  0
    3.6488  -20.0780   14.6619 C   0  0  0  0  0  0  0  0  0  0  0  0
    2.7228  -20.3681   15.9928 C   0  0  0  0  0  0  0  0  0  0  0  0
    2.9702  -21.6692   16.8168 C   0  0  0  0  0  0  0  0  0  0  0  0
    2.1014  -21.9057   17.9967 N   0  0  0  0  0  0  0  0  0  0  0  0
    1.1911  -22.9983   18.3067 C   0  0  0  0  0  0  0  0  0  0  0  0
    0.8550  -23.9420   17.6512 O   0  0  0  0  0  0  0  0  0  0  0  0
    0.6004  -22.9673   19.6959 C   0  0  0  0  0  0  0  0  0  0  0  0
   -0.6606  -23.5273   20.1082 C   0  0  0  0  0  0  0  0  0  0  0  0
   -0.9379  -23.3692   21.4109 N   0  0  0  0  0  0  0  0  0  0  0  0
    0.1426  -22.7181   21.8676 N   0  0  0  0  0  0  0  0  0  0  0  0
    1.0900  -22.4815   20.8999 C   0  0  0  0  0  0  0  0  0  0  0  0
    4.9130  -19.2169   14.6872 N   0  0  0  0  0  0  0  0  0  0  0  0
    5.2865  -18.0046   13.8931 C   0  0  0  0  0  0  0  0  0  0  0  0
    4.6501  -17.3658   13.0983 O   0  0  0  0  0  0  0  0  0  0  0  0
    6.7124  -17.3371   14.1403 C   0  0  0  0  0  0  0  0  0  0  0  0
    7.8121  -18.1023   14.4684 C   0  0  0  0  0  0  0  0  0  0  0  0
    9.0669  -17.4887   14.5584 C   0  0  0  0  0  0  0  0  0  0  0  0
    9.2224  -16.1328   14.2910 C   0  0  0  0  0  0  0  0  0  0  0  0
    8.1193  -15.3659   13.9379 C   0  0  0  0  0  0  0  0  0  0  0  0
    8.3033  -13.8868   13.5509 C   0  0  0  0  0  0  0  0  0  0  0  0
    9.4755  -13.4330   12.6967 C   0  0  0  0  0  0  0  0  0  0  0  0
    9.4216  -13.0203   14.1311 C   0  0  0  0  0  0  0  0  0  0  0  0
    6.8623  -15.9598   13.9104 N   0  0  0  0  0  0  0  0  0  0  0  0
    3.0878  -21.9833   13.7706 H   0  0  0  0  0  0  0  0  0  0  0  0
    4.4370  -21.1758   12.9598 H   0  0  0  0  0  0  0  0  0  0  0  0
    4.7059  -21.9740   14.5106 H   0  0  0  0  0  0  0  0  0  0  0  0
    2.9876  -19.5125   13.9944 H   0  0  0  0  0  0  0  0  0  0  0  0
    1.6927  -20.4487   15.6165 H   0  0  0  0  0  0  0  0  0  0  0  0
    2.7149  -19.4883   16.6314 H   0  0  0  0  0  0  0  0  0  0  0  0
    2.8337  -22.5385   16.1651 H   0  0  0  0  0  0  0  0  0  0  0  0
    4.0007  -21.6948   17.1784 H   0  0  0  0  0  0  0  0  0  0  0  0
    2.2140  -21.3232   18.8220 H   0  0  0  0  0  0  0  0  0  0  0  0
   -1.3763  -24.0397   19.4767 H   0  0  0  0  0  0  0  0  0  0  0  0
    0.1792  -22.4640   22.8495 H   0  0  0  0  0  0  0  0  0  0  0  0
    2.0133  -21.9791   21.1532 H   0  0  0  0  0  0  0  0  0  0  0  0
    5.7170  -19.5411   15.1927 H   0  0  0  0  0  0  0  0  0  0  0  0
    7.7414  -19.1755   14.5990 H   0  0  0  0  0  0  0  0  0  0  0  0
    9.9420  -18.0882   14.8028 H   0  0  0  0  0  0  0  0  0  0  0  0
   10.2170  -15.7008   14.3296 H   0  0  0  0  0  0  0  0  0  0  0  0
    7.3661  -13.3875   13.3126 H   0  0  0  0  0  0  0  0  0  0  0  0
    9.2744  -12.6788   11.9427 H   0  0  0  0  0  0  0  0  0  0  0  0
   10.2223  -14.1563   12.3933 H   0  0  0  0  0  0  0  0  0  0  0  0
    9.2195  -11.9738   14.3296 H   0  0  0  0  0  0  0  0  0  0  0  0
   10.1309  -13.4525   14.8245 H   0  0  0  0  0  0  0  0  0  0  0  0
  1  2  1  0
  2  3  1  0
  3  4  1  0
  4  5  1  0
  5  6  1  0
  6  7  2  0
  6  8  1  0
  8  9  1  0
  9 10  2  0
 10 11  1  0
 11 12  1  0
  2 13  1  0
 13 14  1  0
 14 15  2  0
 14 16  1  0
 16 17  2  0
 17 18  1  0
 18 19  2  0
 19 20  1  0
 20 21  1  0
 21 22  1  0
 22 23  1  0
 20 24  2  0
 12  8  2  0
 24 16  1  0
 23 21  1  0
  1 25  1  0
  1 26  1  0
  1 27  1  0
  2 28  1  0
  3 29  1  0
  3 30  1  0
  4 31  1  0
  4 32  1  0
  5 33  1  0
  9 34  1  0
 11 35  1  0
 12 36  1  0
 13 37  1  0
 17 38  1  0
 18 39  1  0
 19 40  1  0
 21 41  1  0
 22 42  1  0
 22 43  1  0
 23 44  1  0
 23 45  1  0
M  END
>  <Energy>  (1554) 
93.539671232475101

>  <compound_id>  (1554) 
15946

>  <target_id>  (1554) 
1

>  <reference_id>  (1554) 
60

>  <inspiration_ids>  (1554) 
[60, 123]

>  <energy_score>  (1554) 
27.447409421355246

>  <distance_score>  (1554) 
15.846929826074149

>  <path>  (1554) 
/opt/xchem-fragalysis-2/maxwin/BulkDock/SCRATCH/511014/C15946-P60/C15946-P60.minimised.mol

>  <scratch_subdir>  (1554) 
/opt/xchem-fragalysis-2/maxwin/BulkDock/SCRATCH/511014/C15946-P60

>  <fragmenstein_runtime>  (1554) 
98.32668352127075

>  <fragmenstein_outcome>  (1554) 
too moved

>  <fragmenstein_mode>  (1554) 
expansion

>  <fragmenstein_error>  (1554) 


$$$$
C15946-P123
     RDKit          3D

 45 47  0  0  0  0  0  0  0  0999 V2000
    4.3969   -6.3174   16.5132 C   0  0  0  0  0  0  0  0  0  0  0  0
    4.5421   -7.2602   18.0307 C   0  0  0  0  0  0  0  0  0  0  0  0
    2.5633   -8.1137   18.3747 C   0  0  0  0  0  0  0  0  0  0  0  0
    0.9727   -8.4210   19.7572 C   0  0  0  0  0  0  0  0  0  0  0  0
    0.8312   -9.8330   21.0772 N   0  0  0  0  0  0  0  0  0  0  0  0
   -0.5471  -10.9469   21.5067 C   0  0  0  0  0  0  0  0  0  0  0  0
   -1.6870  -10.8872   21.0667 O   0  0  0  0  0  0  0  0  0  0  0  0
   -0.2105  -12.5943   22.6486 C   0  0  0  0  0  0  0  0  0  0  0  0
   -0.5892  -14.4818   22.6411 C   0  0  0  0  0  0  0  0  0  0  0  0
   -1.4127  -15.1538   23.8419 N   0  0  0  0  0  0  0  0  0  0  0  0
   -0.8217  -14.4123   24.7380 N   0  0  0  0  0  0  0  0  0  0  0  0
    0.0242  -13.9745   23.6034 C   0  0  0  0  0  0  0  0  0  0  0  0
    5.8940   -5.9835   17.6483 N   0  0  0  0  0  0  0  0  0  0  0  0
    7.0633   -5.8320   16.2354 C   0  0  0  0  0  0  0  0  0  0  0  0
    7.1209   -6.6861   15.4203 O   0  0  0  0  0  0  0  0  0  0  0  0
    8.2397   -4.2278   15.6630 C   0  0  0  0  0  0  0  0  0  0  0  0
    9.7712   -3.8864   15.0966 C   0  0  0  0  0  0  0  0  0  0  0  0
   10.4807   -2.6906   14.9461 C   0  0  0  0  0  0  0  0  0  0  0  0
    9.7800   -1.5589   15.1750 C   0  0  0  0  0  0  0  0  0  0  0  0
    8.4057   -1.6542   15.4237 C   0  0  0  0  0  0  0  0  0  0  0  0
    7.7461   -0.3910   15.9391 C   0  0  0  0  0  0  0  0  0  0  0  0
    8.0803    0.4084   17.1617 C   0  0  0  0  0  0  0  0  0  0  0  0
    8.4450    1.0077   15.8875 C   0  0  0  0  0  0  0  0  0  0  0  0
    7.6242   -2.9074   15.5197 N   0  0  0  0  0  0  0  0  0  0  0  0
    3.7140   -6.5760   15.6738 H   0  0  0  0  0  0  0  0  0  0  0  0
    5.2757   -6.4580   16.0001 H   0  0  0  0  0  0  0  0  0  0  0  0
    4.3796   -5.2141   16.6570 H   0  0  0  0  0  0  0  0  0  0  0  0
    4.5074   -6.5824   18.8537 H   0  0  0  0  0  0  0  0  0  0  0  0
    2.8529   -9.1631   18.2708 H   0  0  0  0  0  0  0  0  0  0  0  0
    1.9925   -8.1249   17.4350 H   0  0  0  0  0  0  0  0  0  0  0  0
    0.0389   -8.4335   19.1761 H   0  0  0  0  0  0  0  0  0  0  0  0
    0.9569   -7.5842   20.4608 H   0  0  0  0  0  0  0  0  0  0  0  0
    1.5970  -10.0408   21.6242 H   0  0  0  0  0  0  0  0  0  0  0  0
   -0.2449  -15.3063   21.9932 H   0  0  0  0  0  0  0  0  0  0  0  0
   -0.5685  -14.7440   25.6657 H   0  0  0  0  0  0  0  0  0  0  0  0
    1.0250  -14.0691   24.0056 H   0  0  0  0  0  0  0  0  0  0  0  0
    6.0434   -5.2362   18.2643 H   0  0  0  0  0  0  0  0  0  0  0  0
   10.4663   -4.6669   14.7790 H   0  0  0  0  0  0  0  0  0  0  0  0
   11.5121   -2.6746   14.6151 H   0  0  0  0  0  0  0  0  0  0  0  0
   10.2960   -0.6164   15.0713 H   0  0  0  0  0  0  0  0  0  0  0  0
    6.6686   -0.5526   15.9372 H   0  0  0  0  0  0  0  0  0  0  0  0
    7.2436    0.8398   17.7044 H   0  0  0  0  0  0  0  0  0  0  0  0
    8.9872    0.4168   17.6944 H   0  0  0  0  0  0  0  0  0  0  0  0
    7.9699    1.9793   15.7806 H   0  0  0  0  0  0  0  0  0  0  0  0
    9.4987    1.1079   15.6515 H   0  0  0  0  0  0  0  0  0  0  0  0
  1  2  1  0
  2  3  1  0
  3  4  1  0
  4  5  1  0
  5  6  1  0
  6  7  2  0
  6  8  1  0
  8  9  1  0
  9 10  2  0
 10 11  1  0
 11 12  1  0
  2 13  1  0
 13 14  1  0
 14 15  2  0
 14 16  1  0
 16 17  2  0
 17 18  1  0
 18 19  2  0
 19 20  1  0
 20 21  1  0
 21 22  1  0
 22 23  1  0
 20 24  2  0
 12  8  2  0
 24 16  1  0
 23 21  1  0
  1 25  1  0
  1 26  1  0
  1 27  1  0
  2 28  1  0
  3 29  1  0
  3 30  1  0
  4 31  1  0
  4 32  1  0
  5 33  1  0
  9 34  1  0
 11 35  1  0
 12 36  1  0
 13 37  1  0
 17 38  1  0
 18 39  1  0
 19 40  1  0
 21 41  1  0
 22 42  1  0
 22 43  1  0
 23 44  1  0
 23 45  1  0
M  END
>  <Energy>  (1555) 
1380.0597362164171

>  <compound_id>  (1555) 
15946

>  <target_id>  (1555) 
1

>  <reference_id>  (1555) 
123

>  <inspiration_ids>  (1555) 
[60, 123]

>  <energy_score>  (1555) 
1313.9674744052911

>  <distance_score>  (1555) 
14.09099013180405

>  <path>  (1555) 
/opt/xchem-fragalysis-2/maxwin/BulkDock/SCRATCH/511014/C15946-P123/C15946-P123.minimised.mol

>  <scratch_subdir>  (1555) 
/opt/xchem-fragalysis-2/maxwin/BulkDock/SCRATCH/511014/C15946-P123

>  <fragmenstein_runtime>  (1555) 
36.486764430999756

>  <fragmenstein_outcome>  (1555) 
too moved

>  <fragmenstein_mode>  (1555) 
expansion

>  <fragmenstein_error>  (1555) 


$$$$
C15947-P60
     RDKit          3D

 42 44  0  0  0  0  0  0  0  0999 V2000
   -0.4302  -15.9907   21.6857 C   0  0  0  0  0  0  0  0  0  0  0  0
   -1.3771  -15.1284   23.3301 C   0  0  0  0  0  0  0  0  0  0  0  0
   -0.2306  -13.7442   23.2022 C   0  0  0  0  0  0  0  0  0  0  0  0
    0.2952  -11.8928   22.6892 N   0  0  0  0  0  0  0  0  0  0  0  0
   -0.5774  -10.6488   21.7595 C   0  0  0  0  0  0  0  0  0  0  0  0
   -1.6589  -10.7669   21.1905 O   0  0  0  0  0  0  0  0  0  0  0  0
   -0.0421   -9.0816   21.6458 C   0  0  0  0  0  0  0  0  0  0  0  0
   -0.6513   -8.2583   22.5910 C   0  0  0  0  0  0  0  0  0  0  0  0
   -0.0243   -7.1512   23.1957 C   0  0  0  0  0  0  0  0  0  0  0  0
    1.0536   -6.6361   22.5636 C   0  0  0  0  0  0  0  0  0  0  0  0
    1.3176   -7.0775   21.3389 N   0  0  0  0  0  0  0  0  0  0  0  0
    0.7514   -8.2597   20.7962 C   0  0  0  0  0  0  0  0  0  0  0  0
    0.6217   -8.0305   19.0945 C   0  0  0  0  0  0  0  0  0  0  0  0
    1.6313   -7.9757   17.9504 C   0  0  0  0  0  0  0  0  0  0  0  0
    1.2382   -6.6884   18.5515 C   0  0  0  0  0  0  0  0  0  0  0  0
   -2.3799  -15.9918   24.7878 N   0  0  0  0  0  0  0  0  0  0  0  0
   -2.0214  -17.5245   25.7756 C   0  0  0  0  0  0  0  0  0  0  0  0
   -1.0952  -18.3114   25.5912 O   0  0  0  0  0  0  0  0  0  0  0  0
   -2.7954  -17.9247   27.0681 C   0  0  0  0  0  0  0  0  0  0  0  0
   -2.9723  -17.2660   28.3136 C   0  0  0  0  0  0  0  0  0  0  0  0
   -3.6607  -17.9824   29.2120 N   0  0  0  0  0  0  0  0  0  0  0  0
   -3.8271  -19.1693   28.6131 N   0  0  0  0  0  0  0  0  0  0  0  0
   -3.2607  -19.2115   27.3686 C   0  0  0  0  0  0  0  0  0  0  0  0
    0.4916  -15.4945   21.4796 H   0  0  0  0  0  0  0  0  0  0  0  0
   -0.2728  -17.0899   21.6104 H   0  0  0  0  0  0  0  0  0  0  0  0
   -1.0407  -16.0372   20.7191 H   0  0  0  0  0  0  0  0  0  0  0  0
   -0.8796  -15.2095   24.2780 H   0  0  0  0  0  0  0  0  0  0  0  0
   -0.8332  -13.6770   24.1141 H   0  0  0  0  0  0  0  0  0  0  0  0
    0.6852  -14.1049   23.7180 H   0  0  0  0  0  0  0  0  0  0  0  0
    1.1250  -11.4808   23.1144 H   0  0  0  0  0  0  0  0  0  0  0  0
   -1.6708   -8.5061   22.8894 H   0  0  0  0  0  0  0  0  0  0  0  0
   -0.4602   -6.6654   24.0588 H   0  0  0  0  0  0  0  0  0  0  0  0
    1.6037   -5.7729   22.9104 H   0  0  0  0  0  0  0  0  0  0  0  0
   -0.4036   -8.2364   18.7755 H   0  0  0  0  0  0  0  0  0  0  0  0
    1.2513   -8.0985   16.9437 H   0  0  0  0  0  0  0  0  0  0  0  0
    2.6395   -8.3486   18.0386 H   0  0  0  0  0  0  0  0  0  0  0  0
    1.9776   -6.1526   19.1324 H   0  0  0  0  0  0  0  0  0  0  0  0
    0.5770   -6.0365   17.9919 H   0  0  0  0  0  0  0  0  0  0  0  0
   -3.2170  -15.5948   25.0911 H   0  0  0  0  0  0  0  0  0  0  0  0
   -2.6248  -16.2807   28.5982 H   0  0  0  0  0  0  0  0  0  0  0  0
   -4.3085  -19.9041   29.1276 H   0  0  0  0  0  0  0  0  0  0  0  0
   -3.2521  -20.1230   26.7879 H   0  0  0  0  0  0  0  0  0  0  0  0
  1  2  1  0
  2  3  1  0
  3  4  1  0
  4  5  1  0
  5  6  2  0
  5  7  1  0
  7  8  2  0
  8  9  1  0
  9 10  2  0
 10 11  1  0
 11 12  2  0
 12 13  1  0
 13 14  1  0
 14 15  1  0
  2 16  1  0
 16 17  1  0
 17 18  2  0
 17 19  1  0
 19 20  1  0
 20 21  2  0
 21 22  1  0
 22 23  1  0
 12  7  1  0
 15 13  1  0
 23 19  2  0
  1 24  1  0
  1 25  1  0
  1 26  1  0
  2 27  1  0
  3 28  1  0
  3 29  1  0
  4 30  1  0
  8 31  1  0
  9 32  1  0
 10 33  1  0
 13 34  1  0
 14 35  1  0
 14 36  1  0
 15 37  1  0
 15 38  1  0
 16 39  1  0
 20 40  1  0
 22 41  1  0
 23 42  1  0
M  END
>  <Energy>  (1556) 
644.54317734162407

>  <compound_id>  (1556) 
15947

>  <target_id>  (1556) 
1

>  <reference_id>  (1556) 
60

>  <inspiration_ids>  (1556) 
[60, 123]

>  <energy_score>  (1556) 
583.9611392176857

>  <distance_score>  (1556) 
13.431716489723495

>  <path>  (1556) 
/opt/xchem-fragalysis-2/maxwin/BulkDock/SCRATCH/511014/C15947-P60/C15947-P60.minimised.mol

>  <scratch_subdir>  (1556) 
/opt/xchem-fragalysis-2/maxwin/BulkDock/SCRATCH/511014/C15947-P60

>  <fragmenstein_runtime>  (1556) 
71.58961081504822

>  <fragmenstein_outcome>  (1556) 
too moved

>  <fragmenstein_mode>  (1556) 
expansion

>  <fragmenstein_error>  (1556) 


$$$$
C15947-P123
     RDKit          3D

 42 44  0  0  0  0  0  0  0  0999 V2000
   -6.9866  -11.6849   26.3847 C   0  0  0  0  0  0  0  0  0  0  0  0
   -6.6000  -11.9040   24.8787 C   0  0  0  0  0  0  0  0  0  0  0  0
   -4.7267  -11.7626   24.2748 C   0  0  0  0  0  0  0  0  0  0  0  0
   -3.5858  -10.3106   23.5469 N   0  0  0  0  0  0  0  0  0  0  0  0
   -3.1331   -9.9878   22.0808 C   0  0  0  0  0  0  0  0  0  0  0  0
   -3.3509  -10.5814   21.0409 O   0  0  0  0  0  0  0  0  0  0  0  0
   -2.0504   -8.6191   22.0044 C   0  0  0  0  0  0  0  0  0  0  0  0
   -1.2401   -8.9049   20.8992 C   0  0  0  0  0  0  0  0  0  0  0  0
    0.1237   -8.5713   20.8700 C   0  0  0  0  0  0  0  0  0  0  0  0
    0.7321   -8.1028   21.9839 C   0  0  0  0  0  0  0  0  0  0  0  0
    0.0720   -7.8281   23.0808 N   0  0  0  0  0  0  0  0  0  0  0  0
   -1.2838   -7.8000   22.9879 C   0  0  0  0  0  0  0  0  0  0  0  0
   -1.5463   -6.2606   23.5140 C   0  0  0  0  0  0  0  0  0  0  0  0
   -0.3720   -5.2573   23.6796 C   0  0  0  0  0  0  0  0  0  0  0  0
   -1.0192   -5.8471   24.8837 C   0  0  0  0  0  0  0  0  0  0  0  0
   -7.4716  -13.0891   24.5698 N   0  0  0  0  0  0  0  0  0  0  0  0
   -8.9019  -13.2870   24.7401 C   0  0  0  0  0  0  0  0  0  0  0  0
   -9.7565  -12.5284   25.0945 O   0  0  0  0  0  0  0  0  0  0  0  0
   -9.3876  -14.6618   24.4873 C   0  0  0  0  0  0  0  0  0  0  0  0
   -8.7908  -15.9456   24.5070 C   0  0  0  0  0  0  0  0  0  0  0  0
   -9.6120  -16.9138   24.0815 N   0  0  0  0  0  0  0  0  0  0  0  0
  -10.7579  -16.2754   23.8370 N   0  0  0  0  0  0  0  0  0  0  0  0
  -10.6948  -14.9500   24.1217 C   0  0  0  0  0  0  0  0  0  0  0  0
   -6.7467  -10.6928   26.7586 H   0  0  0  0  0  0  0  0  0  0  0  0
   -6.5712  -12.4453   27.0339 H   0  0  0  0  0  0  0  0  0  0  0  0
   -8.0672  -11.7319   26.5484 H   0  0  0  0  0  0  0  0  0  0  0  0
   -7.2427  -11.1829   24.3536 H   0  0  0  0  0  0  0  0  0  0  0  0
   -3.9012  -12.1259   24.9119 H   0  0  0  0  0  0  0  0  0  0  0  0
   -4.9567  -12.7635   23.8742 H   0  0  0  0  0  0  0  0  0  0  0  0
   -3.2977   -9.5587   24.1561 H   0  0  0  0  0  0  0  0  0  0  0  0
   -1.6601   -9.4143   20.0334 H   0  0  0  0  0  0  0  0  0  0  0  0
    0.6997   -8.6305   19.9636 H   0  0  0  0  0  0  0  0  0  0  0  0
    1.7757   -7.9410   22.0898 H   0  0  0  0  0  0  0  0  0  0  0  0
   -2.4094   -5.7618   23.0704 H   0  0  0  0  0  0  0  0  0  0  0  0
   -0.5734   -4.2166   23.4494 H   0  0  0  0  0  0  0  0  0  0  0  0
    0.6453   -5.5512   23.4547 H   0  0  0  0  0  0  0  0  0  0  0  0
   -1.6402   -5.1999   25.4914 H   0  0  0  0  0  0  0  0  0  0  0  0
   -0.4486   -6.5733   25.4523 H   0  0  0  0  0  0  0  0  0  0  0  0
   -7.0676  -13.9263   24.1754 H   0  0  0  0  0  0  0  0  0  0  0  0
   -7.7723  -16.2163   24.7400 H   0  0  0  0  0  0  0  0  0  0  0  0
  -11.5489  -16.8023   23.4793 H   0  0  0  0  0  0  0  0  0  0  0  0
  -11.5519  -14.3025   23.9915 H   0  0  0  0  0  0  0  0  0  0  0  0
  1  2  1  0
  2  3  1  0
  3  4  1  0
  4  5  1  0
  5  6  2  0
  5  7  1  0
  7  8  2  0
  8  9  1  0
  9 10  2  0
 10 11  1  0
 11 12  2  0
 12 13  1  0
 13 14  1  0
 14 15  1  0
  2 16  1  0
 16 17  1  0
 17 18  2  0
 17 19  1  0
 19 20  1  0
 20 21  2  0
 21 22  1  0
 22 23  1  0
 12  7  1  0
 15 13  1  0
 23 19  2  0
  1 24  1  0
  1 25  1  0
  1 26  1  0
  2 27  1  0
  3 28  1  0
  3 29  1  0
  4 30  1  0
  8 31  1  0
  9 32  1  0
 10 33  1  0
 13 34  1  0
 14 35  1  0
 14 36  1  0
 15 37  1  0
 15 38  1  0
 16 39  1  0
 20 40  1  0
 22 41  1  0
 23 42  1  0
M  END
>  <Energy>  (1557) 
327.57155751072821

>  <compound_id>  (1557) 
15947

>  <target_id>  (1557) 
1

>  <reference_id>  (1557) 
123

>  <inspiration_ids>  (1557) 
[60, 123]

>  <energy_score>  (1557) 
266.9895193867942

>  <distance_score>  (1557) 
14.412404189544265

>  <path>  (1557) 
/opt/xchem-fragalysis-2/maxwin/BulkDock/SCRATCH/511014/C15947-P123/C15947-P123.minimised.mol

>  <scratch_subdir>  (1557) 
/opt/xchem-fragalysis-2/maxwin/BulkDock/SCRATCH/511014/C15947-P123

>  <fragmenstein_runtime>  (1557) 
48.058292865753174

>  <fragmenstein_outcome>  (1557) 
too moved

>  <fragmenstein_mode>  (1557) 
expansion

>  <fragmenstein_error>  (1557) 


$$$$
C15948-P60
     RDKit          3D

 48 50  0  0  0  0  0  0  0  0999 V2000
   -2.8656  -16.0316   25.2858 C   0  0  0  0  0  0  0  0  0  0  0  0
   -1.9705  -14.3394   25.7056 C   0  0  0  0  0  0  0  0  0  0  0  0
   -2.1442  -14.4835   26.9383 N   0  0  0  0  0  0  0  0  0  0  0  0
   -2.2807  -15.6902   27.7347 C   0  0  0  0  0  0  0  0  0  0  0  0
   -2.1312  -16.8448   27.4387 O   0  0  0  0  0  0  0  0  0  0  0  0
   -2.9127  -15.4826   29.4130 C   0  0  0  0  0  0  0  0  0  0  0  0
   -3.9060  -16.5038   29.9571 C   0  0  0  0  0  0  0  0  0  0  0  0
   -4.3077  -16.2832   31.2071 N   0  0  0  0  0  0  0  0  0  0  0  0
   -3.6497  -15.1669   31.5230 N   0  0  0  0  0  0  0  0  0  0  0  0
   -2.8673  -14.6386   30.5138 C   0  0  0  0  0  0  0  0  0  0  0  0
   -1.4305  -14.1916   25.0170 C   0  0  0  0  0  0  0  0  0  0  0  0
   -1.7193  -15.1092   23.8338 C   0  0  0  0  0  0  0  0  0  0  0  0
   -0.2112  -13.6623   23.3879 C   0  0  0  0  0  0  0  0  0  0  0  0
    0.3623  -11.8273   22.7517 N   0  0  0  0  0  0  0  0  0  0  0  0
   -0.5308  -10.5683   21.8117 C   0  0  0  0  0  0  0  0  0  0  0  0
   -1.6474  -10.6880   21.3228 O   0  0  0  0  0  0  0  0  0  0  0  0
    0.0391   -8.9246   21.5985 C   0  0  0  0  0  0  0  0  0  0  0  0
   -0.5585   -8.0758   22.5413 C   0  0  0  0  0  0  0  0  0  0  0  0
   -0.1175   -6.7843   22.8915 C   0  0  0  0  0  0  0  0  0  0  0  0
    0.8331   -6.2145   22.1167 C   0  0  0  0  0  0  0  0  0  0  0  0
    1.0853   -6.7701   20.9437 N   0  0  0  0  0  0  0  0  0  0  0  0
    0.4988   -8.0034   20.5992 C   0  0  0  0  0  0  0  0  0  0  0  0
    0.1353   -7.9137   19.0786 C   0  0  0  0  0  0  0  0  0  0  0  0
    0.0985   -6.5475   18.3835 C   0  0  0  0  0  0  0  0  0  0  0  0
    1.1477   -7.5269   17.9967 C   0  0  0  0  0  0  0  0  0  0  0  0
   -3.7341  -15.7846   24.7177 H   0  0  0  0  0  0  0  0  0  0  0  0
   -3.1624  -16.7492   26.0145 H   0  0  0  0  0  0  0  0  0  0  0  0
   -2.2861  -16.8785   25.0004 H   0  0  0  0  0  0  0  0  0  0  0  0
   -2.5193  -13.0407   25.4595 H   0  0  0  0  0  0  0  0  0  0  0  0
   -2.9007  -13.8911   26.1651 H   0  0  0  0  0  0  0  0  0  0  0  0
   -4.3075  -17.3546   29.4172 H   0  0  0  0  0  0  0  0  0  0  0  0
   -3.7934  -14.7783   32.4477 H   0  0  0  0  0  0  0  0  0  0  0  0
   -2.3937  -13.7036   30.7357 H   0  0  0  0  0  0  0  0  0  0  0  0
   -0.6139  -13.4550   25.5275 H   0  0  0  0  0  0  0  0  0  0  0  0
   -1.1896  -15.7999   24.3003 H   0  0  0  0  0  0  0  0  0  0  0  0
   -2.7813  -15.2000   23.5438 H   0  0  0  0  0  0  0  0  0  0  0  0
   -1.3788  -14.9493   22.8714 H   0  0  0  0  0  0  0  0  0  0  0  0
    0.7095  -14.0505   23.8674 H   0  0  0  0  0  0  0  0  0  0  0  0
   -0.1754  -14.1755   22.4319 H   0  0  0  0  0  0  0  0  0  0  0  0
    1.2255  -11.4334   23.1071 H   0  0  0  0  0  0  0  0  0  0  0  0
   -1.5135   -8.3674   22.9726 H   0  0  0  0  0  0  0  0  0  0  0  0
   -0.5562   -6.2600   23.7322 H   0  0  0  0  0  0  0  0  0  0  0  0
    1.2887   -5.2580   22.3294 H   0  0  0  0  0  0  0  0  0  0  0  0
   -0.7409   -8.4985   18.8033 H   0  0  0  0  0  0  0  0  0  0  0  0
    0.4098   -5.6574   18.9165 H   0  0  0  0  0  0  0  0  0  0  0  0
   -0.7128   -6.3652   17.6882 H   0  0  0  0  0  0  0  0  0  0  0  0
    2.1619   -7.2384   18.2322 H   0  0  0  0  0  0  0  0  0  0  0  0
    1.0519   -7.9754   17.0196 H   0  0  0  0  0  0  0  0  0  0  0  0
  1  2  1  0
  2  3  1  0
  3  4  1  0
  4  5  2  0
  4  6  1  0
  6  7  1  0
  7  8  2  0
  8  9  1  0
  9 10  1  0
  3 11  1  0
 11 12  1  0
 11 13  1  0
 13 14  1  0
 14 15  1  0
 15 16  2  0
 15 17  1  0
 17 18  2  0
 18 19  1  0
 19 20  2  0
 20 21  1  0
 21 22  2  0
 22 23  1  0
 23 24  1  0
 24 25  1  0
 10  6  2  0
 22 17  1  0
 25 23  1  0
  1 26  1  0
  1 27  1  0
  1 28  1  0
  2 29  1  0
  2 30  1  0
  7 31  1  0
  9 32  1  0
 10 33  1  0
 11 34  1  0
 12 35  1  0
 12 36  1  0
 12 37  1  0
 13 38  1  0
 13 39  1  0
 14 40  1  0
 18 41  1  0
 19 42  1  0
 20 43  1  0
 23 44  1  0
 24 45  1  0
 24 46  1  0
 25 47  1  0
 25 48  1  0
M  END
>  <Energy>  (1558) 
1562.6370215434833

>  <compound_id>  (1558) 
15948

>  <target_id>  (1558) 
1

>  <reference_id>  (1558) 
60

>  <inspiration_ids>  (1558) 
[60, 123]

>  <energy_score>  (1558) 
1474.5123042953956

>  <distance_score>  (1558) 
13.445151135838184

>  <path>  (1558) 
/opt/xchem-fragalysis-2/maxwin/BulkDock/SCRATCH/511014/C15948-P60/C15948-P60.minimised.mol

>  <scratch_subdir>  (1558) 
/opt/xchem-fragalysis-2/maxwin/BulkDock/SCRATCH/511014/C15948-P60

>  <fragmenstein_runtime>  (1558) 
62.632288217544556

>  <fragmenstein_outcome>  (1558) 
too moved

>  <fragmenstein_mode>  (1558) 
expansion

>  <fragmenstein_error>  (1558) 


$$$$
C15948-P123
     RDKit          3D

 48 50  0  0  0  0  0  0  0  0999 V2000
   -1.8420  -18.5411   18.0019 C   0  0  0  0  0  0  0  0  0  0  0  0
   -2.4409  -16.8343   18.4913 C   0  0  0  0  0  0  0  0  0  0  0  0
   -3.5579  -17.2692   19.2351 N   0  0  0  0  0  0  0  0  0  0  0  0
   -4.4106  -18.6814   18.7655 C   0  0  0  0  0  0  0  0  0  0  0  0
   -4.2172  -19.4803   17.9669 O   0  0  0  0  0  0  0  0  0  0  0  0
   -5.5831  -18.9376   19.6653 C   0  0  0  0  0  0  0  0  0  0  0  0
   -5.9465  -20.2221   20.2039 C   0  0  0  0  0  0  0  0  0  0  0  0
   -6.9203  -20.1763   21.1222 N   0  0  0  0  0  0  0  0  0  0  0  0
   -7.2400  -18.8782   21.1509 N   0  0  0  0  0  0  0  0  0  0  0  0
   -6.5260  -18.1199   20.2571 C   0  0  0  0  0  0  0  0  0  0  0  0
   -1.8564  -16.4041   18.8226 C   0  0  0  0  0  0  0  0  0  0  0  0
   -0.7418  -17.2527   19.9872 C   0  0  0  0  0  0  0  0  0  0  0  0
   -1.2287  -14.6674   17.9498 C   0  0  0  0  0  0  0  0  0  0  0  0
    0.5313  -13.7407   17.9988 N   0  0  0  0  0  0  0  0  0  0  0  0
    2.2896  -14.3965   18.1305 C   0  0  0  0  0  0  0  0  0  0  0  0
    2.4963  -15.5508   18.0991 O   0  0  0  0  0  0  0  0  0  0  0  0
    4.0482  -13.3956   18.5149 C   0  0  0  0  0  0  0  0  0  0  0  0
    4.4913  -12.2284   17.6032 C   0  0  0  0  0  0  0  0  0  0  0  0
    5.5812  -12.1668   16.6673 C   0  0  0  0  0  0  0  0  0  0  0  0
    6.3086  -13.3158   16.5765 C   0  0  0  0  0  0  0  0  0  0  0  0
    6.1456  -14.2686   17.5044 N   0  0  0  0  0  0  0  0  0  0  0  0
    5.3909  -13.8796   18.6037 C   0  0  0  0  0  0  0  0  0  0  0  0
    6.3946  -12.9163   19.5796 C   0  0  0  0  0  0  0  0  0  0  0  0
    7.9049  -13.1990   19.5978 C   0  0  0  0  0  0  0  0  0  0  0  0
    7.4316  -11.8807   19.1100 C   0  0  0  0  0  0  0  0  0  0  0  0
   -0.7830  -18.5351   17.7263 H   0  0  0  0  0  0  0  0  0  0  0  0
   -2.3518  -18.8197   17.0735 H   0  0  0  0  0  0  0  0  0  0  0  0
   -1.9854  -19.2610   18.8145 H   0  0  0  0  0  0  0  0  0  0  0  0
   -2.4501  -16.6899   17.1980 H   0  0  0  0  0  0  0  0  0  0  0  0
   -3.4509  -16.7189   17.8283 H   0  0  0  0  0  0  0  0  0  0  0  0
   -5.4798  -21.1747   19.9828 H   0  0  0  0  0  0  0  0  0  0  0  0
   -7.9647  -18.5728   21.7903 H   0  0  0  0  0  0  0  0  0  0  0  0
   -6.7331  -17.0699   20.1659 H   0  0  0  0  0  0  0  0  0  0  0  0
   -2.0219  -15.6416   19.7680 H   0  0  0  0  0  0  0  0  0  0  0  0
   -0.1969  -16.5542   20.6080 H   0  0  0  0  0  0  0  0  0  0  0  0
   -1.3401  -17.9072   20.6168 H   0  0  0  0  0  0  0  0  0  0  0  0
   -0.0321  -17.8885   19.4616 H   0  0  0  0  0  0  0  0  0  0  0  0
   -1.8726  -13.8529   18.2784 H   0  0  0  0  0  0  0  0  0  0  0  0
   -1.5618  -14.6732   16.8839 H   0  0  0  0  0  0  0  0  0  0  0  0
    0.5531  -12.7850   17.9605 H   0  0  0  0  0  0  0  0  0  0  0  0
    3.7555  -11.4567   17.3289 H   0  0  0  0  0  0  0  0  0  0  0  0
    5.6937  -11.3467   15.9717 H   0  0  0  0  0  0  0  0  0  0  0  0
    7.0359  -13.5048   15.7985 H   0  0  0  0  0  0  0  0  0  0  0  0
    5.8859  -12.6455   20.4907 H   0  0  0  0  0  0  0  0  0  0  0  0
    8.4332  -13.2156   20.5410 H   0  0  0  0  0  0  0  0  0  0  0  0
    8.3037  -13.9006   18.8725 H   0  0  0  0  0  0  0  0  0  0  0  0
    7.6290  -11.6610   18.0719 H   0  0  0  0  0  0  0  0  0  0  0  0
    7.6678  -11.0366   19.7468 H   0  0  0  0  0  0  0  0  0  0  0  0
  1  2  1  0
  2  3  1  0
  3  4  1  0
  4  5  2  0
  4  6  1  0
  6  7  1  0
  7  8  2  0
  8  9  1  0
  9 10  1  0
  3 11  1  0
 11 12  1  0
 11 13  1  0
 13 14  1  0
 14 15  1  0
 15 16  2  0
 15 17  1  0
 17 18  2  0
 18 19  1  0
 19 20  2  0
 20 21  1  0
 21 22  2  0
 22 23  1  0
 23 24  1  0
 24 25  1  0
 10  6  2  0
 22 17  1  0
 25 23  1  0
  1 26  1  0
  1 27  1  0
  1 28  1  0
  2 29  1  0
  2 30  1  0
  7 31  1  0
  9 32  1  0
 10 33  1  0
 11 34  1  0
 12 35  1  0
 12 36  1  0
 12 37  1  0
 13 38  1  0
 13 39  1  0
 14 40  1  0
 18 41  1  0
 19 42  1  0
 20 43  1  0
 23 44  1  0
 24 45  1  0
 24 46  1  0
 25 47  1  0
 25 48  1  0
M  END
>  <Energy>  (1559) 
1241.4686766632919

>  <compound_id>  (1559) 
15948

>  <target_id>  (1559) 
1

>  <reference_id>  (1559) 
123

>  <inspiration_ids>  (1559) 
[60, 123]

>  <energy_score>  (1559) 
1153.3439594152064

>  <distance_score>  (1559) 
13.403301489841795

>  <path>  (1559) 
/opt/xchem-fragalysis-2/maxwin/BulkDock/SCRATCH/511014/C15948-P123/C15948-P123.minimised.mol

>  <scratch_subdir>  (1559) 
/opt/xchem-fragalysis-2/maxwin/BulkDock/SCRATCH/511014/C15948-P123

>  <fragmenstein_runtime>  (1559) 
44.28569269180298

>  <fragmenstein_outcome>  (1559) 
too moved

>  <fragmenstein_mode>  (1559) 
expansion

>  <fragmenstein_error>  (1559) 


$$$$
C15950-P60
     RDKit          3D

 45 47  0  0  0  0  0  0  0  0999 V2000
   -2.2706  -15.3624   24.5801 C   0  0  0  0  0  0  0  0  0  0  0  0
   -1.4565  -14.2906   25.3202 C   0  0  0  0  0  0  0  0  0  0  0  0
    0.4437  -14.1469   24.4324 C   0  0  0  0  0  0  0  0  0  0  0  0
    2.1070  -13.2340   24.9667 N   0  0  0  0  0  0  0  0  0  0  0  0
    1.5535  -13.4017   26.2208 C   0  0  0  0  0  0  0  0  0  0  0  0
    3.9014  -13.8413   24.9677 C   0  0  0  0  0  0  0  0  0  0  0  0
    4.2480  -14.9798   24.6966 O   0  0  0  0  0  0  0  0  0  0  0  0
    5.4592  -12.8176   25.5582 C   0  0  0  0  0  0  0  0  0  0  0  0
    6.3263  -11.8472   24.7794 C   0  0  0  0  0  0  0  0  0  0  0  0
    7.4796  -11.1839   25.2114 C   0  0  0  0  0  0  0  0  0  0  0  0
    7.8553  -11.4571   26.4807 C   0  0  0  0  0  0  0  0  0  0  0  0
    7.2199  -12.3876   27.2199 N   0  0  0  0  0  0  0  0  0  0  0  0
    6.1427  -13.1364   26.7380 C   0  0  0  0  0  0  0  0  0  0  0  0
    5.9324  -14.4439   27.4299 C   0  0  0  0  0  0  0  0  0  0  0  0
    6.9811  -14.9796   28.3806 C   0  0  0  0  0  0  0  0  0  0  0  0
    6.8506  -15.5821   27.0185 C   0  0  0  0  0  0  0  0  0  0  0  0
   -1.8355  -14.9255   27.0680 N   0  0  0  0  0  0  0  0  0  0  0  0
   -2.0562  -16.4056   27.6093 C   0  0  0  0  0  0  0  0  0  0  0  0
   -1.9511  -17.4755   27.0379 O   0  0  0  0  0  0  0  0  0  0  0  0
   -2.5724  -16.5971   28.9900 C   0  0  0  0  0  0  0  0  0  0  0  0
   -3.3032  -17.7811   29.3758 C   0  0  0  0  0  0  0  0  0  0  0  0
   -3.7296  -17.7691   30.6374 N   0  0  0  0  0  0  0  0  0  0  0  0
   -3.2888  -16.5949   31.0922 N   0  0  0  0  0  0  0  0  0  0  0  0
   -2.5857  -15.8690   30.1580 C   0  0  0  0  0  0  0  0  0  0  0  0
   -2.4881  -16.2797   25.0883 H   0  0  0  0  0  0  0  0  0  0  0  0
   -1.5653  -15.3427   23.7963 H   0  0  0  0  0  0  0  0  0  0  0  0
   -3.1635  -15.2601   23.9550 H   0  0  0  0  0  0  0  0  0  0  0  0
   -1.8992  -13.3096   25.3953 H   0  0  0  0  0  0  0  0  0  0  0  0
   -0.0927  -13.8202   23.4930 H   0  0  0  0  0  0  0  0  0  0  0  0
    0.9900  -14.5155   23.5776 H   0  0  0  0  0  0  0  0  0  0  0  0
    0.9703  -14.1316   26.6713 H   0  0  0  0  0  0  0  0  0  0  0  0
    1.4302  -12.3865   26.5503 H   0  0  0  0  0  0  0  0  0  0  0  0
    2.4101  -13.8244   26.7922 H   0  0  0  0  0  0  0  0  0  0  0  0
    6.0637  -11.5038   23.7850 H   0  0  0  0  0  0  0  0  0  0  0  0
    8.0114  -10.4761   24.5899 H   0  0  0  0  0  0  0  0  0  0  0  0
    8.7064  -10.9799   26.9553 H   0  0  0  0  0  0  0  0  0  0  0  0
    4.9063  -14.7128   27.6658 H   0  0  0  0  0  0  0  0  0  0  0  0
    7.8702  -14.3954   28.5900 H   0  0  0  0  0  0  0  0  0  0  0  0
    6.6432  -15.5661   29.2276 H   0  0  0  0  0  0  0  0  0  0  0  0
    7.6699  -15.4056   26.3305 H   0  0  0  0  0  0  0  0  0  0  0  0
    6.4138  -16.5702   26.9282 H   0  0  0  0  0  0  0  0  0  0  0  0
   -1.9272  -14.2725   27.8328 H   0  0  0  0  0  0  0  0  0  0  0  0
   -3.5369  -18.6394   28.7570 H   0  0  0  0  0  0  0  0  0  0  0  0
   -3.5007  -16.3448   32.0528 H   0  0  0  0  0  0  0  0  0  0  0  0
   -2.1958  -14.9056   30.4342 H   0  0  0  0  0  0  0  0  0  0  0  0
  1  2  1  0
  2  3  1  0
  3  4  1  0
  4  5  1  0
  4  6  1  0
  6  7  2  0
  6  8  1  0
  8  9  2  0
  9 10  1  0
 10 11  2  0
 11 12  1  0
 12 13  2  0
 13 14  1  0
 14 15  1  0
 15 16  1  0
  2 17  1  0
 17 18  1  0
 18 19  2  0
 18 20  1  0
 20 21  1  0
 21 22  2  0
 22 23  1  0
 23 24  1  0
 13  8  1  0
 16 14  1  0
 24 20  2  0
  1 25  1  0
  1 26  1  0
  1 27  1  0
  2 28  1  0
  3 29  1  0
  3 30  1  0
  5 31  1  0
  5 32  1  0
  5 33  1  0
  9 34  1  0
 10 35  1  0
 11 36  1  0
 14 37  1  0
 15 38  1  0
 15 39  1  0
 16 40  1  0
 16 41  1  0
 17 42  1  0
 21 43  1  0
 23 44  1  0
 24 45  1  0
M  END
>  <Energy>  (1560) 
569.7409223374558

>  <compound_id>  (1560) 
15950

>  <target_id>  (1560) 
1

>  <reference_id>  (1560) 
60

>  <inspiration_ids>  (1560) 
[60, 123]

>  <energy_score>  (1560) 
498.1241050391186

>  <distance_score>  (1560) 
14.289052422197388

>  <path>  (1560) 
/opt/xchem-fragalysis-2/maxwin/BulkDock/SCRATCH/511014/C15950-P60/C15950-P60.minimised.mol

>  <scratch_subdir>  (1560) 
/opt/xchem-fragalysis-2/maxwin/BulkDock/SCRATCH/511014/C15950-P60

>  <fragmenstein_runtime>  (1560) 
52.94022512435913

>  <fragmenstein_outcome>  (1560) 
too moved

>  <fragmenstein_mode>  (1560) 
expansion

>  <fragmenstein_error>  (1560) 


$$$$
C15950-P123
     RDKit          3D

 45 47  0  0  0  0  0  0  0  0999 V2000
   -3.9349  -15.5127   23.9590 C   0  0  0  0  0  0  0  0  0  0  0  0
   -2.7853  -15.8584   25.2928 C   0  0  0  0  0  0  0  0  0  0  0  0
   -2.0226  -14.5074   25.7460 C   0  0  0  0  0  0  0  0  0  0  0  0
   -0.7805  -13.7542   24.7984 N   0  0  0  0  0  0  0  0  0  0  0  0
   -0.9004  -14.8457   24.1085 C   0  0  0  0  0  0  0  0  0  0  0  0
    1.1721  -13.3917   25.2167 C   0  0  0  0  0  0  0  0  0  0  0  0
    1.6604  -13.8136   26.2446 O   0  0  0  0  0  0  0  0  0  0  0  0
    2.4292  -12.4402   23.8017 C   0  0  0  0  0  0  0  0  0  0  0  0
    3.2440  -11.1004   23.0278 C   0  0  0  0  0  0  0  0  0  0  0  0
    4.9644  -10.2339   23.0232 C   0  0  0  0  0  0  0  0  0  0  0  0
    6.1115  -10.7124   23.4638 C   0  0  0  0  0  0  0  0  0  0  0  0
    5.5013  -11.7494   23.9218 N   0  0  0  0  0  0  0  0  0  0  0  0
    3.8159  -12.5076   23.3475 C   0  0  0  0  0  0  0  0  0  0  0  0
    4.1107  -12.7177   21.3388 C   0  0  0  0  0  0  0  0  0  0  0  0
    5.0004  -13.0361   20.0989 C   0  0  0  0  0  0  0  0  0  0  0  0
    5.7390  -12.0227   20.6724 C   0  0  0  0  0  0  0  0  0  0  0  0
   -2.4729  -17.1719   26.5393 N   0  0  0  0  0  0  0  0  0  0  0  0
   -2.4440  -17.1219   27.9890 C   0  0  0  0  0  0  0  0  0  0  0  0
   -2.5342  -16.1971   28.7378 O   0  0  0  0  0  0  0  0  0  0  0  0
   -2.3921  -18.4680   28.5724 C   0  0  0  0  0  0  0  0  0  0  0  0
   -3.4450  -19.0637   29.3342 C   0  0  0  0  0  0  0  0  0  0  0  0
   -3.1727  -20.3172   29.7067 N   0  0  0  0  0  0  0  0  0  0  0  0
   -1.9269  -20.5110   29.2598 N   0  0  0  0  0  0  0  0  0  0  0  0
   -1.4251  -19.4481   28.5522 C   0  0  0  0  0  0  0  0  0  0  0  0
   -3.8571  -14.5572   23.5979 H   0  0  0  0  0  0  0  0  0  0  0  0
   -3.8381  -15.9485   22.9843 H   0  0  0  0  0  0  0  0  0  0  0  0
   -5.0003  -15.6382   24.1581 H   0  0  0  0  0  0  0  0  0  0  0  0
   -2.2652  -16.5325   24.7453 H   0  0  0  0  0  0  0  0  0  0  0  0
   -2.6245  -13.5976   25.8148 H   0  0  0  0  0  0  0  0  0  0  0  0
   -1.7946  -14.7959   26.7932 H   0  0  0  0  0  0  0  0  0  0  0  0
   -1.8352  -15.1846   23.8085 H   0  0  0  0  0  0  0  0  0  0  0  0
   -1.0411  -14.7415   22.9950 H   0  0  0  0  0  0  0  0  0  0  0  0
   -0.0853  -14.2829   23.5832 H   0  0  0  0  0  0  0  0  0  0  0  0
    3.7965  -11.1820   22.0907 H   0  0  0  0  0  0  0  0  0  0  0  0
    4.9824   -9.1271   23.2035 H   0  0  0  0  0  0  0  0  0  0  0  0
    7.0648  -10.3336   23.7375 H   0  0  0  0  0  0  0  0  0  0  0  0
    3.3924  -13.4831   21.1319 H   0  0  0  0  0  0  0  0  0  0  0  0
    4.5185  -12.8790   19.1215 H   0  0  0  0  0  0  0  0  0  0  0  0
    5.6398  -13.8356   19.7601 H   0  0  0  0  0  0  0  0  0  0  0  0
    6.0609  -11.5799   19.7171 H   0  0  0  0  0  0  0  0  0  0  0  0
    6.7141  -12.3067   21.0745 H   0  0  0  0  0  0  0  0  0  0  0  0
   -2.4513  -18.1415   26.2402 H   0  0  0  0  0  0  0  0  0  0  0  0
   -4.3997  -18.6289   29.6084 H   0  0  0  0  0  0  0  0  0  0  0  0
   -1.4705  -21.3913   29.4786 H   0  0  0  0  0  0  0  0  0  0  0  0
   -0.4179  -19.4674   28.1631 H   0  0  0  0  0  0  0  0  0  0  0  0
  1  2  1  0
  2  3  1  0
  3  4  1  0
  4  5  1  0
  4  6  1  0
  6  7  2  0
  6  8  1  0
  8  9  2  0
  9 10  1  0
 10 11  2  0
 11 12  1  0
 12 13  2  0
 13 14  1  0
 14 15  1  0
 15 16  1  0
  2 17  1  0
 17 18  1  0
 18 19  2  0
 18 20  1  0
 20 21  1  0
 21 22  2  0
 22 23  1  0
 23 24  1  0
 13  8  1  0
 16 14  1  0
 24 20  2  0
  1 25  1  0
  1 26  1  0
  1 27  1  0
  2 28  1  0
  3 29  1  0
  3 30  1  0
  5 31  1  0
  5 32  1  0
  5 33  1  0
  9 34  1  0
 10 35  1  0
 11 36  1  0
 14 37  1  0
 15 38  1  0
 15 39  1  0
 16 40  1  0
 16 41  1  0
 17 42  1  0
 21 43  1  0
 23 44  1  0
 24 45  1  0
M  END
>  <Energy>  (1561) 
1286.0983069833289

>  <compound_id>  (1561) 
15950

>  <target_id>  (1561) 
1

>  <reference_id>  (1561) 
123

>  <inspiration_ids>  (1561) 
[60, 123]

>  <energy_score>  (1561) 
1214.481489685003

>  <distance_score>  (1561) 
12.765041569880335

>  <path>  (1561) 
/opt/xchem-fragalysis-2/maxwin/BulkDock/SCRATCH/511014/C15950-P123/C15950-P123.minimised.mol

>  <scratch_subdir>  (1561) 
/opt/xchem-fragalysis-2/maxwin/BulkDock/SCRATCH/511014/C15950-P123

>  <fragmenstein_runtime>  (1561) 
76.58312439918518

>  <fragmenstein_outcome>  (1561) 
too moved

>  <fragmenstein_mode>  (1561) 
expansion

>  <fragmenstein_error>  (1561) 


$$$$
C15951-P60
     RDKit          3D

 42 44  0  0  0  0  0  0  0  0999 V2000
   -8.0798  -14.7206   20.0765 C   0  0  0  0  0  0  0  0  0  0  0  0
   -6.8085  -15.5603   20.1747 C   0  0  0  0  0  0  0  0  0  0  0  0
   -6.9690  -16.9457   19.4920 C   0  0  0  0  0  0  0  0  0  0  0  0
   -7.8905  -17.9080   20.0833 N   0  0  0  0  0  0  0  0  0  0  0  0
   -8.4675  -17.9744   21.3883 C   0  0  0  0  0  0  0  0  0  0  0  0
   -8.4057  -17.2145   22.3079 O   0  0  0  0  0  0  0  0  0  0  0  0
   -9.2538  -19.2023   21.5848 C   0  0  0  0  0  0  0  0  0  0  0  0
  -10.4588  -19.3171   22.3183 C   0  0  0  0  0  0  0  0  0  0  0  0
  -10.8942  -20.5735   22.4423 N   0  0  0  0  0  0  0  0  0  0  0  0
   -9.9941  -21.2894   21.7388 N   0  0  0  0  0  0  0  0  0  0  0  0
   -8.9903  -20.5092   21.2136 C   0  0  0  0  0  0  0  0  0  0  0  0
   -5.6349  -14.8560   19.6333 N   0  0  0  0  0  0  0  0  0  0  0  0
   -5.5214  -13.8831   18.5851 C   0  0  0  0  0  0  0  0  0  0  0  0
   -6.3605  -13.3353   17.9347 O   0  0  0  0  0  0  0  0  0  0  0  0
   -4.0604  -13.6063   18.2058 C   0  0  0  0  0  0  0  0  0  0  0  0
   -3.4899  -12.1948   18.5218 C   0  0  0  0  0  0  0  0  0  0  0  0
   -3.8039  -11.1042   17.7025 C   0  0  0  0  0  0  0  0  0  0  0  0
   -3.2460   -9.8536   17.9396 C   0  0  0  0  0  0  0  0  0  0  0  0
   -2.3883   -9.6983   19.0027 C   0  0  0  0  0  0  0  0  0  0  0  0
   -2.1876  -10.7787   19.8305 C   0  0  0  0  0  0  0  0  0  0  0  0
   -2.6864  -12.0174   19.6063 N   0  0  0  0  0  0  0  0  0  0  0  0
   -3.6548  -14.2195   16.8523 C   0  0  0  0  0  0  0  0  0  0  0  0
   -3.0975  -14.7969   18.1056 C   0  0  0  0  0  0  0  0  0  0  0  0
   -8.9152  -15.1958   20.5984 H   0  0  0  0  0  0  0  0  0  0  0  0
   -8.3846  -14.5751   19.0349 H   0  0  0  0  0  0  0  0  0  0  0  0
   -7.9275  -13.7317   20.5225 H   0  0  0  0  0  0  0  0  0  0  0  0
   -6.5726  -15.7132   21.2337 H   0  0  0  0  0  0  0  0  0  0  0  0
   -7.2706  -16.8198   18.4457 H   0  0  0  0  0  0  0  0  0  0  0  0
   -5.9951  -17.4498   19.4755 H   0  0  0  0  0  0  0  0  0  0  0  0
   -8.0864  -18.7726   19.5916 H   0  0  0  0  0  0  0  0  0  0  0  0
  -11.0236  -18.5133   22.7710 H   0  0  0  0  0  0  0  0  0  0  0  0
  -10.1109  -22.3021   21.6561 H   0  0  0  0  0  0  0  0  0  0  0  0
   -8.1806  -20.9695   20.6660 H   0  0  0  0  0  0  0  0  0  0  0  0
   -4.7164  -15.0376   20.0154 H   0  0  0  0  0  0  0  0  0  0  0  0
   -4.4899  -11.2420   16.8706 H   0  0  0  0  0  0  0  0  0  0  0  0
   -3.5010   -9.0178   17.3014 H   0  0  0  0  0  0  0  0  0  0  0  0
   -1.8830   -8.7703   19.1915 H   0  0  0  0  0  0  0  0  0  0  0  0
   -1.5726  -10.6734   20.7171 H   0  0  0  0  0  0  0  0  0  0  0  0
   -2.9545  -13.7055   16.2108 H   0  0  0  0  0  0  0  0  0  0  0  0
   -4.3980  -14.7932   16.3087 H   0  0  0  0  0  0  0  0  0  0  0  0
   -3.4288  -15.7950   18.3663 H   0  0  0  0  0  0  0  0  0  0  0  0
   -2.0389  -14.6485   18.2635 H   0  0  0  0  0  0  0  0  0  0  0  0
  1  2  1  0
  2  3  1  0
  3  4  1  0
  4  5  1  0
  5  6  2  0
  5  7  1  0
  7  8  1  0
  8  9  2  0
  9 10  1  0
 10 11  1  0
  2 12  1  0
 12 13  1  0
 13 14  2  0
 13 15  1  0
 15 16  1  0
 16 17  2  0
 17 18  1  0
 18 19  2  0
 19 20  1  0
 20 21  2  0
 15 22  1  0
 22 23  1  0
 11  7  2  0
 23 15  1  0
 21 16  1  0
  1 24  1  0
  1 25  1  0
  1 26  1  0
  2 27  1  0
  3 28  1  0
  3 29  1  0
  4 30  1  0
  8 31  1  0
 10 32  1  0
 11 33  1  0
 12 34  1  0
 17 35  1  0
 18 36  1  0
 19 37  1  0
 20 38  1  0
 22 39  1  0
 22 40  1  0
 23 41  1  0
 23 42  1  0
M  END
>  <Energy>  (1562) 
34.128692609775634

>  <compound_id>  (1562) 
15951

>  <target_id>  (1562) 
1

>  <reference_id>  (1562) 
60

>  <inspiration_ids>  (1562) 
[60, 123]

>  <energy_score>  (1562) 
-25.105629347516583

>  <distance_score>  (1562) 
14.637134044067098

>  <path>  (1562) 
/opt/xchem-fragalysis-2/maxwin/BulkDock/SCRATCH/511014/C15951-P60/C15951-P60.minimised.mol

>  <scratch_subdir>  (1562) 
/opt/xchem-fragalysis-2/maxwin/BulkDock/SCRATCH/511014/C15951-P60

>  <fragmenstein_runtime>  (1562) 
41.0832142829895

>  <fragmenstein_outcome>  (1562) 
too moved

>  <fragmenstein_mode>  (1562) 
expansion

>  <fragmenstein_error>  (1562) 


$$$$
C15951-P123
     RDKit          3D

 42 44  0  0  0  0  0  0  0  0999 V2000
    6.4074  -14.2766   27.6405 C   0  0  0  0  0  0  0  0  0  0  0  0
    6.4374  -15.2100   26.4373 C   0  0  0  0  0  0  0  0  0  0  0  0
    5.0082  -15.5045   25.8580 C   0  0  0  0  0  0  0  0  0  0  0  0
    4.0374  -16.3430   26.5987 N   0  0  0  0  0  0  0  0  0  0  0  0
    3.1369  -16.0182   27.6821 C   0  0  0  0  0  0  0  0  0  0  0  0
    3.0048  -15.0084   28.3090 O   0  0  0  0  0  0  0  0  0  0  0  0
    2.1395  -17.1058   27.9972 C   0  0  0  0  0  0  0  0  0  0  0  0
    1.0810  -17.0212   28.9681 C   0  0  0  0  0  0  0  0  0  0  0  0
    0.2982  -18.1058   29.0273 N   0  0  0  0  0  0  0  0  0  0  0  0
    0.8205  -18.9059   28.0890 N   0  0  0  0  0  0  0  0  0  0  0  0
    1.9119  -18.3619   27.4513 C   0  0  0  0  0  0  0  0  0  0  0  0
    7.4406  -14.7666   25.4046 N   0  0  0  0  0  0  0  0  0  0  0  0
    7.9266  -13.4248   25.0452 C   0  0  0  0  0  0  0  0  0  0  0  0
    7.5865  -12.3436   25.4318 O   0  0  0  0  0  0  0  0  0  0  0  0
    9.0952  -13.4232   23.9467 C   0  0  0  0  0  0  0  0  0  0  0  0
    9.7242  -12.0374   23.3846 C   0  0  0  0  0  0  0  0  0  0  0  0
   10.1177  -10.9879   24.2190 C   0  0  0  0  0  0  0  0  0  0  0  0
   10.9019   -9.9290   23.7273 C   0  0  0  0  0  0  0  0  0  0  0  0
   11.2901   -9.9098   22.3960 C   0  0  0  0  0  0  0  0  0  0  0  0
   10.8505  -10.9459   21.6027 C   0  0  0  0  0  0  0  0  0  0  0  0
   10.0832  -11.9730   22.0595 N   0  0  0  0  0  0  0  0  0  0  0  0
    9.1737  -14.6012   22.9528 C   0  0  0  0  0  0  0  0  0  0  0  0
   10.1488  -14.5416   24.0877 C   0  0  0  0  0  0  0  0  0  0  0  0
    7.4157  -14.1332   28.0441 H   0  0  0  0  0  0  0  0  0  0  0  0
    6.0163  -13.2911   27.3761 H   0  0  0  0  0  0  0  0  0  0  0  0
    5.7845  -14.6865   28.4409 H   0  0  0  0  0  0  0  0  0  0  0  0
    6.8357  -16.1729   26.7819 H   0  0  0  0  0  0  0  0  0  0  0  0
    4.4979  -14.5617   25.6717 H   0  0  0  0  0  0  0  0  0  0  0  0
    5.1261  -16.0020   24.8882 H   0  0  0  0  0  0  0  0  0  0  0  0
    3.9293  -17.3190   26.3617 H   0  0  0  0  0  0  0  0  0  0  0  0
    0.8698  -16.1844   29.6237 H   0  0  0  0  0  0  0  0  0  0  0  0
    0.3841  -19.8080   27.9271 H   0  0  0  0  0  0  0  0  0  0  0  0
    2.4019  -18.9153   26.6643 H   0  0  0  0  0  0  0  0  0  0  0  0
    7.8979  -15.4509   24.8223 H   0  0  0  0  0  0  0  0  0  0  0  0
    9.8648  -11.0225   25.2756 H   0  0  0  0  0  0  0  0  0  0  0  0
   11.2298   -9.1447   24.4048 H   0  0  0  0  0  0  0  0  0  0  0  0
   11.9095   -9.1167   21.9976 H   0  0  0  0  0  0  0  0  0  0  0  0
   11.1035  -10.9977   20.5476 H   0  0  0  0  0  0  0  0  0  0  0  0
    9.5564  -14.4139   21.9525 H   0  0  0  0  0  0  0  0  0  0  0  0
    8.4002  -15.3560   22.9343 H   0  0  0  0  0  0  0  0  0  0  0  0
   11.1809  -14.3024   23.8471 H   0  0  0  0  0  0  0  0  0  0  0  0
   10.0626  -15.2516   24.9002 H   0  0  0  0  0  0  0  0  0  0  0  0
  1  2  1  0
  2  3  1  0
  3  4  1  0
  4  5  1  0
  5  6  2  0
  5  7  1  0
  7  8  1  0
  8  9  2  0
  9 10  1  0
 10 11  1  0
  2 12  1  0
 12 13  1  0
 13 14  2  0
 13 15  1  0
 15 16  1  0
 16 17  2  0
 17 18  1  0
 18 19  2  0
 19 20  1  0
 20 21  2  0
 15 22  1  0
 22 23  1  0
 11  7  2  0
 23 15  1  0
 21 16  1  0
  1 24  1  0
  1 25  1  0
  1 26  1  0
  2 27  1  0
  3 28  1  0
  3 29  1  0
  4 30  1  0
  8 31  1  0
 10 32  1  0
 11 33  1  0
 12 34  1  0
 17 35  1  0
 18 36  1  0
 19 37  1  0
 20 38  1  0
 22 39  1  0
 22 40  1  0
 23 41  1  0
 23 42  1  0
M  END
>  <Energy>  (1563) 
52.397592976338572

>  <compound_id>  (1563) 
15951

>  <target_id>  (1563) 
1

>  <reference_id>  (1563) 
123

>  <inspiration_ids>  (1563) 
[60, 123]

>  <energy_score>  (1563) 
-6.836728980954263

>  <distance_score>  (1563) 
14.898339679325638

>  <path>  (1563) 
/opt/xchem-fragalysis-2/maxwin/BulkDock/SCRATCH/511014/C15951-P123/C15951-P123.minimised.mol

>  <scratch_subdir>  (1563) 
/opt/xchem-fragalysis-2/maxwin/BulkDock/SCRATCH/511014/C15951-P123

>  <fragmenstein_runtime>  (1563) 
41.68152976036072

>  <fragmenstein_outcome>  (1563) 
too moved

>  <fragmenstein_mode>  (1563) 
expansion

>  <fragmenstein_error>  (1563) 


$$$$
C15953-P60
     RDKit          3D

 43 45  0  0  0  0  0  0  0  0999 V2000
  -10.4445  -28.2939   23.1002 O   0  0  0  0  0  0  0  0  0  0  0  0
  -10.4218  -28.2726   24.3150 C   0  0  0  0  0  0  0  0  0  0  0  0
  -10.5778  -27.1459   25.2486 N   0  0  0  0  0  0  0  0  0  0  0  0
  -10.7175  -25.5879   24.9857 C   0  0  0  0  0  0  0  0  0  0  0  0
   -9.5320  -24.3554   24.0221 C   0  0  0  0  0  0  0  0  0  0  0  0
  -10.5588  -23.0216   23.4598 C   0  0  0  0  0  0  0  0  0  0  0  0
  -11.7330  -22.9476   24.3156 O   0  0  0  0  0  0  0  0  0  0  0  0
   -7.6642  -23.8910   24.1279 N   0  0  0  0  0  0  0  0  0  0  0  0
   -6.5349  -23.8880   23.0311 C   0  0  0  0  0  0  0  0  0  0  0  0
   -6.5679  -24.2571   21.8935 O   0  0  0  0  0  0  0  0  0  0  0  0
   -4.9586  -23.1263   23.3725 C   0  0  0  0  0  0  0  0  0  0  0  0
   -3.9396  -24.0781   23.5185 C   0  0  0  0  0  0  0  0  0  0  0  0
   -2.5468  -23.7816   23.5960 C   0  0  0  0  0  0  0  0  0  0  0  0
   -2.1003  -22.4891   23.5305 C   0  0  0  0  0  0  0  0  0  0  0  0
   -2.9556  -21.5054   23.3119 N   0  0  0  0  0  0  0  0  0  0  0  0
   -4.3190  -21.7761   23.0869 C   0  0  0  0  0  0  0  0  0  0  0  0
   -4.8570  -20.4493   22.4156 C   0  0  0  0  0  0  0  0  0  0  0  0
   -4.0128  -19.7446   21.3382 C   0  0  0  0  0  0  0  0  0  0  0  0
   -4.1533  -19.0975   22.6758 C   0  0  0  0  0  0  0  0  0  0  0  0
  -10.0423  -29.7017   24.8699 C   0  0  0  0  0  0  0  0  0  0  0  0
   -8.6939  -30.2062   24.7492 C   0  0  0  0  0  0  0  0  0  0  0  0
   -8.5157  -31.4640   25.1542 N   0  0  0  0  0  0  0  0  0  0  0  0
   -9.7514  -31.8578   25.4332 N   0  0  0  0  0  0  0  0  0  0  0  0
  -10.6863  -30.9182   25.0970 C   0  0  0  0  0  0  0  0  0  0  0  0
  -10.4213  -27.4753   26.1891 H   0  0  0  0  0  0  0  0  0  0  0  0
  -11.7294  -25.4991   24.6277 H   0  0  0  0  0  0  0  0  0  0  0  0
  -10.7929  -25.1849   26.0136 H   0  0  0  0  0  0  0  0  0  0  0  0
   -9.6688  -24.0831   25.0647 H   0  0  0  0  0  0  0  0  0  0  0  0
   -9.9701  -22.1134   23.3270 H   0  0  0  0  0  0  0  0  0  0  0  0
  -11.0674  -22.9431   22.5101 H   0  0  0  0  0  0  0  0  0  0  0  0
  -12.1777  -22.0930   24.1399 H   0  0  0  0  0  0  0  0  0  0  0  0
   -7.2752  -23.5857   25.0113 H   0  0  0  0  0  0  0  0  0  0  0  0
   -4.2192  -25.1280   23.4908 H   0  0  0  0  0  0  0  0  0  0  0  0
   -1.8370  -24.5968   23.7031 H   0  0  0  0  0  0  0  0  0  0  0  0
   -1.0545  -22.2228   23.6188 H   0  0  0  0  0  0  0  0  0  0  0  0
   -5.9264  -20.3656   22.3096 H   0  0  0  0  0  0  0  0  0  0  0  0
   -4.5406  -19.3079   20.4986 H   0  0  0  0  0  0  0  0  0  0  0  0
   -3.0484  -20.1646   21.0752 H   0  0  0  0  0  0  0  0  0  0  0  0
   -4.7749  -18.2128   22.7446 H   0  0  0  0  0  0  0  0  0  0  0  0
   -3.2783  -19.0635   23.3139 H   0  0  0  0  0  0  0  0  0  0  0  0
   -7.8098  -29.6942   24.4046 H   0  0  0  0  0  0  0  0  0  0  0  0
   -9.8952  -32.8229   25.7112 H   0  0  0  0  0  0  0  0  0  0  0  0
  -11.6877  -31.2816   24.9518 H   0  0  0  0  0  0  0  0  0  0  0  0
  1  2  2  0
  2  3  1  0
  3  4  1  0
  4  5  1  0
  5  6  1  0
  6  7  1  0
  5  8  1  0
  8  9  1  0
  9 10  2  0
  9 11  1  0
 11 12  2  0
 12 13  1  0
 13 14  2  0
 14 15  1  0
 15 16  2  0
 16 17  1  0
 17 18  1  0
 18 19  1  0
  2 20  1  0
 20 21  1  0
 21 22  2  0
 22 23  1  0
 23 24  1  0
 16 11  1  0
 19 17  1  0
 24 20  2  0
  3 25  1  0
  4 26  1  0
  4 27  1  0
  5 28  1  0
  6 29  1  0
  6 30  1  0
  7 31  1  0
  8 32  1  0
 12 33  1  0
 13 34  1  0
 14 35  1  0
 17 36  1  0
 18 37  1  0
 18 38  1  0
 19 39  1  0
 19 40  1  0
 21 41  1  0
 23 42  1  0
 24 43  1  0
M  END
>  <Energy>  (1564) 
347.22156949211086

>  <compound_id>  (1564) 
15953

>  <target_id>  (1564) 
1

>  <reference_id>  (1564) 
60

>  <inspiration_ids>  (1564) 
[60, 123]

>  <energy_score>  (1564) 
261.15228829652744

>  <distance_score>  (1564) 
19.815771948905294

>  <path>  (1564) 
/opt/xchem-fragalysis-2/maxwin/BulkDock/SCRATCH/511014/C15953-P60/C15953-P60.minimised.mol

>  <scratch_subdir>  (1564) 
/opt/xchem-fragalysis-2/maxwin/BulkDock/SCRATCH/511014/C15953-P60

>  <fragmenstein_runtime>  (1564) 
44.11110186576843

>  <fragmenstein_outcome>  (1564) 
too moved

>  <fragmenstein_mode>  (1564) 
expansion

>  <fragmenstein_error>  (1564) 


$$$$
C15953-P123
     RDKit          3D

 43 45  0  0  0  0  0  0  0  0999 V2000
   -6.2326  -18.2275   18.5782 O   0  0  0  0  0  0  0  0  0  0  0  0
   -6.4796  -17.5950   19.5598 C   0  0  0  0  0  0  0  0  0  0  0  0
   -5.8088  -16.4706   20.1397 N   0  0  0  0  0  0  0  0  0  0  0  0
   -4.5545  -15.8012   19.7702 C   0  0  0  0  0  0  0  0  0  0  0  0
   -3.4010  -16.5270   20.4827 C   0  0  0  0  0  0  0  0  0  0  0  0
   -3.6215  -16.6136   22.0271 C   0  0  0  0  0  0  0  0  0  0  0  0
   -3.2271  -17.8835   22.5470 O   0  0  0  0  0  0  0  0  0  0  0  0
   -1.9848  -16.2080   20.2635 N   0  0  0  0  0  0  0  0  0  0  0  0
   -0.8018  -16.8823   20.6870 C   0  0  0  0  0  0  0  0  0  0  0  0
   -0.6677  -17.8271   21.3891 O   0  0  0  0  0  0  0  0  0  0  0  0
    0.6971  -16.4166   20.0512 C   0  0  0  0  0  0  0  0  0  0  0  0
    0.6147  -17.7664   18.9471 C   0  0  0  0  0  0  0  0  0  0  0  0
    1.7013  -17.7075   17.9484 C   0  0  0  0  0  0  0  0  0  0  0  0
    2.4278  -16.0061   17.7685 C   0  0  0  0  0  0  0  0  0  0  0  0
    2.6230  -14.8921   18.6646 N   0  0  0  0  0  0  0  0  0  0  0  0
    2.0952  -15.0927   20.0447 C   0  0  0  0  0  0  0  0  0  0  0  0
    3.1545  -14.0233   21.2631 C   0  0  0  0  0  0  0  0  0  0  0  0
    3.4870  -12.6165   21.7964 C   0  0  0  0  0  0  0  0  0  0  0  0
    4.3345  -13.0474   20.6297 C   0  0  0  0  0  0  0  0  0  0  0  0
   -7.6010  -18.0726   20.4054 C   0  0  0  0  0  0  0  0  0  0  0  0
   -8.6407  -18.9579   20.0118 C   0  0  0  0  0  0  0  0  0  0  0  0
   -9.4773  -19.2727   21.0007 N   0  0  0  0  0  0  0  0  0  0  0  0
   -8.9532  -18.6559   22.0581 N   0  0  0  0  0  0  0  0  0  0  0  0
   -7.8454  -17.9082   21.7626 C   0  0  0  0  0  0  0  0  0  0  0  0
   -6.3465  -16.1376   20.9292 H   0  0  0  0  0  0  0  0  0  0  0  0
   -4.4311  -15.8781   18.6853 H   0  0  0  0  0  0  0  0  0  0  0  0
   -4.6300  -14.7481   20.0425 H   0  0  0  0  0  0  0  0  0  0  0  0
   -3.4552  -17.5670   20.1263 H   0  0  0  0  0  0  0  0  0  0  0  0
   -4.6636  -16.4754   22.3214 H   0  0  0  0  0  0  0  0  0  0  0  0
   -3.0338  -15.8567   22.5538 H   0  0  0  0  0  0  0  0  0  0  0  0
   -2.3090  -18.0539   22.2416 H   0  0  0  0  0  0  0  0  0  0  0  0
   -1.7326  -15.4891   19.5967 H   0  0  0  0  0  0  0  0  0  0  0  0
   -0.1338  -18.5465   19.0221 H   0  0  0  0  0  0  0  0  0  0  0  0
    1.7731  -18.4078   17.1091 H   0  0  0  0  0  0  0  0  0  0  0  0
    2.7005  -15.7208   16.7560 H   0  0  0  0  0  0  0  0  0  0  0  0
    3.1275  -14.6251   22.1884 H   0  0  0  0  0  0  0  0  0  0  0  0
    4.0857  -11.7782   22.1651 H   0  0  0  0  0  0  0  0  0  0  0  0
    3.3027  -12.7129   22.8962 H   0  0  0  0  0  0  0  0  0  0  0  0
    4.2379  -12.8426   19.5708 H   0  0  0  0  0  0  0  0  0  0  0  0
    5.3994  -13.2023   20.7008 H   0  0  0  0  0  0  0  0  0  0  0  0
   -8.8042  -19.3866   19.0301 H   0  0  0  0  0  0  0  0  0  0  0  0
   -9.4314  -18.7822   22.9417 H   0  0  0  0  0  0  0  0  0  0  0  0
   -7.3125  -17.3800   22.5384 H   0  0  0  0  0  0  0  0  0  0  0  0
  1  2  2  0
  2  3  1  0
  3  4  1  0
  4  5  1  0
  5  6  1  0
  6  7  1  0
  5  8  1  0
  8  9  1  0
  9 10  2  0
  9 11  1  0
 11 12  2  0
 12 13  1  0
 13 14  2  0
 14 15  1  0
 15 16  2  0
 16 17  1  0
 17 18  1  0
 18 19  1  0
  2 20  1  0
 20 21  1  0
 21 22  2  0
 22 23  1  0
 23 24  1  0
 16 11  1  0
 19 17  1  0
 24 20  2  0
  3 25  1  0
  4 26  1  0
  4 27  1  0
  5 28  1  0
  6 29  1  0
  6 30  1  0
  7 31  1  0
  8 32  1  0
 12 33  1  0
 13 34  1  0
 14 35  1  0
 17 36  1  0
 18 37  1  0
 18 38  1  0
 19 39  1  0
 19 40  1  0
 21 41  1  0
 23 42  1  0
 24 43  1  0
M  END
>  <Energy>  (1565) 
442.08452109983244

>  <compound_id>  (1565) 
15953

>  <target_id>  (1565) 
1

>  <reference_id>  (1565) 
123

>  <inspiration_ids>  (1565) 
[60, 123]

>  <energy_score>  (1565) 
356.0152399042547

>  <distance_score>  (1565) 
15.06647691824018

>  <path>  (1565) 
/opt/xchem-fragalysis-2/maxwin/BulkDock/SCRATCH/511014/C15953-P123/C15953-P123.minimised.mol

>  <scratch_subdir>  (1565) 
/opt/xchem-fragalysis-2/maxwin/BulkDock/SCRATCH/511014/C15953-P123

>  <fragmenstein_runtime>  (1565) 
36.487629413604736

>  <fragmenstein_outcome>  (1565) 
too moved

>  <fragmenstein_mode>  (1565) 
expansion

>  <fragmenstein_error>  (1565) 


$$$$
C15954-P60
     RDKit          3D

 45 47  0  0  0  0  0  0  0  0999 V2000
   -3.6879   -8.2509   18.7948 C   0  0  0  0  0  0  0  0  0  0  0  0
   -2.4943   -9.0119   19.3801 C   0  0  0  0  0  0  0  0  0  0  0  0
   -2.8707  -10.5531   19.2837 C   0  0  0  0  0  0  0  0  0  0  0  0
   -4.0811  -11.1084   20.1331 N   0  0  0  0  0  0  0  0  0  0  0  0
   -3.3518  -12.4011   19.9182 C   0  0  0  0  0  0  0  0  0  0  0  0
   -4.4042  -10.9431   21.5225 C   0  0  0  0  0  0  0  0  0  0  0  0
   -3.7874  -10.4126   22.4085 O   0  0  0  0  0  0  0  0  0  0  0  0
   -5.6677  -11.6352   21.9693 C   0  0  0  0  0  0  0  0  0  0  0  0
   -6.6229  -12.4562   21.3103 C   0  0  0  0  0  0  0  0  0  0  0  0
   -7.4401  -13.1242   22.1420 N   0  0  0  0  0  0  0  0  0  0  0  0
   -7.0371  -12.7371   23.3595 N   0  0  0  0  0  0  0  0  0  0  0  0
   -6.0018  -11.8490   23.3111 C   0  0  0  0  0  0  0  0  0  0  0  0
   -1.2149   -8.8057   18.5809 N   0  0  0  0  0  0  0  0  0  0  0  0
    0.1984   -8.4462   19.0338 C   0  0  0  0  0  0  0  0  0  0  0  0
    0.6186   -8.1585   20.1252 O   0  0  0  0  0  0  0  0  0  0  0  0
    1.4341   -8.6048   17.7259 C   0  0  0  0  0  0  0  0  0  0  0  0
    0.6638   -8.1514   16.4468 C   0  0  0  0  0  0  0  0  0  0  0  0
    0.9804   -7.5539   14.9236 C   0  0  0  0  0  0  0  0  0  0  0  0
    2.2514   -7.3462   14.6469 C   0  0  0  0  0  0  0  0  0  0  0  0
    2.9661   -7.7366   15.7048 N   0  0  0  0  0  0  0  0  0  0  0  0
    2.8337   -8.2179   17.3946 C   0  0  0  0  0  0  0  0  0  0  0  0
    4.3988   -7.0837   18.0085 C   0  0  0  0  0  0  0  0  0  0  0  0
    4.8782   -5.6840   18.1291 C   0  0  0  0  0  0  0  0  0  0  0  0
    5.8746   -6.6532   17.8562 C   0  0  0  0  0  0  0  0  0  0  0  0
   -3.9434   -8.6222   17.7960 H   0  0  0  0  0  0  0  0  0  0  0  0
   -4.5710   -8.3774   19.4301 H   0  0  0  0  0  0  0  0  0  0  0  0
   -3.5137   -7.1802   18.6904 H   0  0  0  0  0  0  0  0  0  0  0  0
   -2.2983   -8.7567   20.4246 H   0  0  0  0  0  0  0  0  0  0  0  0
   -1.9055  -10.9846   19.5845 H   0  0  0  0  0  0  0  0  0  0  0  0
   -3.0716  -10.7771   18.2239 H   0  0  0  0  0  0  0  0  0  0  0  0
   -4.0102  -13.1882   20.3114 H   0  0  0  0  0  0  0  0  0  0  0  0
   -3.2335  -12.6978   18.8645 H   0  0  0  0  0  0  0  0  0  0  0  0
   -2.4402  -12.5023   20.5129 H   0  0  0  0  0  0  0  0  0  0  0  0
   -6.7170  -12.6320   20.2458 H   0  0  0  0  0  0  0  0  0  0  0  0
   -7.5065  -13.1196   24.1746 H   0  0  0  0  0  0  0  0  0  0  0  0
   -5.5410  -11.4831   24.2184 H   0  0  0  0  0  0  0  0  0  0  0  0
   -1.1950   -9.0682   17.6330 H   0  0  0  0  0  0  0  0  0  0  0  0
    1.3393   -7.3313   16.5863 H   0  0  0  0  0  0  0  0  0  0  0  0
    0.1751   -7.3302   14.2264 H   0  0  0  0  0  0  0  0  0  0  0  0
    2.7132   -7.0059   13.7417 H   0  0  0  0  0  0  0  0  0  0  0  0
    4.3846   -6.8013   16.9048 H   0  0  0  0  0  0  0  0  0  0  0  0
    4.7582   -5.1561   19.0660 H   0  0  0  0  0  0  0  0  0  0  0  0
    4.5933   -5.0481   17.2710 H   0  0  0  0  0  0  0  0  0  0  0  0
    6.2897   -6.4819   16.8691 H   0  0  0  0  0  0  0  0  0  0  0  0
    6.6368   -6.5544   18.6140 H   0  0  0  0  0  0  0  0  0  0  0  0
  1  2  1  0
  2  3  1  0
  3  4  1  0
  4  5  1  0
  4  6  1  0
  6  7  2  0
  6  8  1  0
  8  9  1  0
  9 10  2  0
 10 11  1  0
 11 12  1  0
  2 13  1  0
 13 14  1  0
 14 15  2  0
 14 16  1  0
 16 17  2  0
 17 18  1  0
 18 19  2  0
 19 20  1  0
 20 21  2  0
 21 22  1  0
 22 23  1  0
 23 24  1  0
 12  8  2  0
 21 16  1  0
 24 22  1  0
  1 25  1  0
  1 26  1  0
  1 27  1  0
  2 28  1  0
  3 29  1  0
  3 30  1  0
  5 31  1  0
  5 32  1  0
  5 33  1  0
  9 34  1  0
 11 35  1  0
 12 36  1  0
 13 37  1  0
 17 38  1  0
 18 39  1  0
 19 40  1  0
 22 41  1  0
 23 42  1  0
 23 43  1  0
 24 44  1  0
 24 45  1  0
M  END
>  <Energy>  (1566) 
565.56573268911995

>  <compound_id>  (1566) 
15954

>  <target_id>  (1566) 
1

>  <reference_id>  (1566) 
60

>  <inspiration_ids>  (1566) 
[60, 123]

>  <energy_score>  (1566) 
478.2910146551724

>  <distance_score>  (1566) 
14.321648103533292

>  <path>  (1566) 
/opt/xchem-fragalysis-2/maxwin/BulkDock/SCRATCH/511014/C15954-P60/C15954-P60.minimised.mol

>  <scratch_subdir>  (1566) 
/opt/xchem-fragalysis-2/maxwin/BulkDock/SCRATCH/511014/C15954-P60

>  <fragmenstein_runtime>  (1566) 
40.715633153915405

>  <fragmenstein_outcome>  (1566) 
too moved

>  <fragmenstein_mode>  (1566) 
expansion

>  <fragmenstein_error>  (1566) 


$$$$
C15954-P123
     RDKit          3D

 45 47  0  0  0  0  0  0  0  0999 V2000
   -6.0923  -14.7128   17.5712 C   0  0  0  0  0  0  0  0  0  0  0  0
   -6.2097  -13.7563   18.7546 C   0  0  0  0  0  0  0  0  0  0  0  0
   -5.7167  -14.4331   20.0874 C   0  0  0  0  0  0  0  0  0  0  0  0
   -6.4345  -15.7710   20.4709 N   0  0  0  0  0  0  0  0  0  0  0  0
   -5.5980  -15.6166   21.7029 C   0  0  0  0  0  0  0  0  0  0  0  0
   -7.7891  -16.0311   20.8294 C   0  0  0  0  0  0  0  0  0  0  0  0
   -8.7054  -15.2769   21.0152 O   0  0  0  0  0  0  0  0  0  0  0  0
   -8.0250  -17.4718   21.0978 C   0  0  0  0  0  0  0  0  0  0  0  0
   -9.2623  -18.0660   21.4480 C   0  0  0  0  0  0  0  0  0  0  0  0
   -9.1635  -19.3503   21.7935 N   0  0  0  0  0  0  0  0  0  0  0  0
   -7.8688  -19.6273   21.6035 N   0  0  0  0  0  0  0  0  0  0  0  0
   -7.1442  -18.5389   21.2010 C   0  0  0  0  0  0  0  0  0  0  0  0
   -5.4932  -12.4795   18.4299 N   0  0  0  0  0  0  0  0  0  0  0  0
   -5.2639  -11.2922   19.2234 C   0  0  0  0  0  0  0  0  0  0  0  0
   -5.5197  -11.0582   20.3694 O   0  0  0  0  0  0  0  0  0  0  0  0
   -4.6932  -10.0974   18.4559 C   0  0  0  0  0  0  0  0  0  0  0  0
   -5.2083   -9.7686   17.1957 C   0  0  0  0  0  0  0  0  0  0  0  0
   -4.9624   -8.5153   16.6328 C   0  0  0  0  0  0  0  0  0  0  0  0
   -4.2071   -7.6153   17.3467 C   0  0  0  0  0  0  0  0  0  0  0  0
   -3.5628   -7.9384   18.4827 N   0  0  0  0  0  0  0  0  0  0  0  0
   -3.8126   -9.1604   19.0547 C   0  0  0  0  0  0  0  0  0  0  0  0
   -3.0727   -9.4495   20.3398 C   0  0  0  0  0  0  0  0  0  0  0  0
   -2.0484  -10.5429   20.2701 C   0  0  0  0  0  0  0  0  0  0  0  0
   -1.6080   -9.1275   20.4751 C   0  0  0  0  0  0  0  0  0  0  0  0
   -6.4557  -14.2386   16.6528 H   0  0  0  0  0  0  0  0  0  0  0  0
   -5.0495  -15.0025   17.4015 H   0  0  0  0  0  0  0  0  0  0  0  0
   -6.6800  -15.6218   17.7318 H   0  0  0  0  0  0  0  0  0  0  0  0
   -7.2626  -13.4788   18.8845 H   0  0  0  0  0  0  0  0  0  0  0  0
   -5.9238  -13.6441   20.8256 H   0  0  0  0  0  0  0  0  0  0  0  0
   -4.6424  -14.6079   19.9246 H   0  0  0  0  0  0  0  0  0  0  0  0
   -5.8337  -16.4743   22.3492 H   0  0  0  0  0  0  0  0  0  0  0  0
   -4.5262  -15.7688   21.5215 H   0  0  0  0  0  0  0  0  0  0  0  0
   -5.8799  -14.7801   22.3585 H   0  0  0  0  0  0  0  0  0  0  0  0
  -10.2285  -17.5847   21.4615 H   0  0  0  0  0  0  0  0  0  0  0  0
   -7.5526  -20.5803   21.7592 H   0  0  0  0  0  0  0  0  0  0  0  0
   -6.0795  -18.6150   21.0361 H   0  0  0  0  0  0  0  0  0  0  0  0
   -5.0715  -12.3537   17.5170 H   0  0  0  0  0  0  0  0  0  0  0  0
   -5.9102  -10.4302   16.6935 H   0  0  0  0  0  0  0  0  0  0  0  0
   -5.4222   -8.2284   15.6927 H   0  0  0  0  0  0  0  0  0  0  0  0
   -4.0720   -6.5987   16.9922 H   0  0  0  0  0  0  0  0  0  0  0  0
   -3.6615   -9.3702   21.2487 H   0  0  0  0  0  0  0  0  0  0  0  0
   -1.9102  -11.0210   19.3064 H   0  0  0  0  0  0  0  0  0  0  0  0
   -1.8956  -11.2142   21.0883 H   0  0  0  0  0  0  0  0  0  0  0  0
   -1.2151   -8.8635   21.4481 H   0  0  0  0  0  0  0  0  0  0  0  0
   -1.1142   -8.6433   19.6423 H   0  0  0  0  0  0  0  0  0  0  0  0
  1  2  1  0
  2  3  1  0
  3  4  1  0
  4  5  1  0
  4  6  1  0
  6  7  2  0
  6  8  1  0
  8  9  1  0
  9 10  2  0
 10 11  1  0
 11 12  1  0
  2 13  1  0
 13 14  1  0
 14 15  2  0
 14 16  1  0
 16 17  2  0
 17 18  1  0
 18 19  2  0
 19 20  1  0
 20 21  2  0
 21 22  1  0
 22 23  1  0
 23 24  1  0
 12  8  2  0
 21 16  1  0
 24 22  1  0
  1 25  1  0
  1 26  1  0
  1 27  1  0
  2 28  1  0
  3 29  1  0
  3 30  1  0
  5 31  1  0
  5 32  1  0
  5 33  1  0
  9 34  1  0
 11 35  1  0
 12 36  1  0
 13 37  1  0
 17 38  1  0
 18 39  1  0
 19 40  1  0
 22 41  1  0
 23 42  1  0
 23 43  1  0
 24 44  1  0
 24 45  1  0
M  END
>  <Energy>  (1567) 
127.91387315028972

>  <compound_id>  (1567) 
15954

>  <target_id>  (1567) 
1

>  <reference_id>  (1567) 
123

>  <inspiration_ids>  (1567) 
[60, 123]

>  <energy_score>  (1567) 
40.639155116352754

>  <distance_score>  (1567) 
15.651916620033838

>  <path>  (1567) 
/opt/xchem-fragalysis-2/maxwin/BulkDock/SCRATCH/511014/C15954-P123/C15954-P123.minimised.mol

>  <scratch_subdir>  (1567) 
/opt/xchem-fragalysis-2/maxwin/BulkDock/SCRATCH/511014/C15954-P123

>  <fragmenstein_runtime>  (1567) 
41.477412939071655

>  <fragmenstein_outcome>  (1567) 
too moved

>  <fragmenstein_mode>  (1567) 
expansion

>  <fragmenstein_error>  (1567) 


$$$$
C15955-P60
     RDKit          3D

 45 47  0  0  0  0  0  0  0  0999 V2000
   -0.1434  -19.7902   20.3929 C   0  0  0  0  0  0  0  0  0  0  0  0
   -0.7776  -18.4590   20.9570 C   0  0  0  0  0  0  0  0  0  0  0  0
   -2.2121  -18.4336   20.3555 C   0  0  0  0  0  0  0  0  0  0  0  0
   -3.0536  -19.7397   20.4589 C   0  0  0  0  0  0  0  0  0  0  0  0
   -3.4767  -20.3759   21.7140 N   0  0  0  0  0  0  0  0  0  0  0  0
   -2.7787  -20.5707   22.9574 C   0  0  0  0  0  0  0  0  0  0  0  0
   -1.7038  -20.1944   23.3148 O   0  0  0  0  0  0  0  0  0  0  0  0
   -3.4947  -21.4639   23.8843 C   0  0  0  0  0  0  0  0  0  0  0  0
   -3.4433  -21.4672   25.3093 C   0  0  0  0  0  0  0  0  0  0  0  0
   -4.1489  -22.4590   25.8647 N   0  0  0  0  0  0  0  0  0  0  0  0
   -4.6170  -23.1264   24.7971 N   0  0  0  0  0  0  0  0  0  0  0  0
   -4.2710  -22.5698   23.5990 C   0  0  0  0  0  0  0  0  0  0  0  0
    0.3608  -17.4989   20.7070 N   0  0  0  0  0  0  0  0  0  0  0  0
    0.4670  -16.0116   19.8563 C   0  0  0  0  0  0  0  0  0  0  0  0
   -0.5558  -15.5603   19.4325 O   0  0  0  0  0  0  0  0  0  0  0  0
    2.1914  -14.9067   19.2516 C   0  0  0  0  0  0  0  0  0  0  0  0
    2.0655  -14.0582   18.1225 C   0  0  0  0  0  0  0  0  0  0  0  0
    2.9895  -12.4861   17.7994 C   0  0  0  0  0  0  0  0  0  0  0  0
    4.0362  -12.1260   17.1763 N   0  0  0  0  0  0  0  0  0  0  0  0
    4.1125  -12.2930   18.3188 C   0  0  0  0  0  0  0  0  0  0  0  0
    3.4374  -10.4823   17.3762 C   0  0  0  0  0  0  0  0  0  0  0  0
    4.0157   -9.0414   18.3150 C   0  0  0  0  0  0  0  0  0  0  0  0
    2.6227   -9.1279   17.9354 C   0  0  0  0  0  0  0  0  0  0  0  0
    3.5118  -14.0172   18.7799 C   0  0  0  0  0  0  0  0  0  0  0  0
   -0.1070  -19.7723   19.2974 H   0  0  0  0  0  0  0  0  0  0  0  0
   -0.6816  -20.6840   20.7180 H   0  0  0  0  0  0  0  0  0  0  0  0
    0.8822  -19.9328   20.7540 H   0  0  0  0  0  0  0  0  0  0  0  0
   -0.7635  -18.7172   21.9922 H   0  0  0  0  0  0  0  0  0  0  0  0
   -2.0955  -18.2281   19.2816 H   0  0  0  0  0  0  0  0  0  0  0  0
   -2.8361  -17.6139   20.6990 H   0  0  0  0  0  0  0  0  0  0  0  0
   -2.5970  -20.5343   19.8595 H   0  0  0  0  0  0  0  0  0  0  0  0
   -4.0009  -19.5285   19.9445 H   0  0  0  0  0  0  0  0  0  0  0  0
   -4.3369  -20.9094   21.7310 H   0  0  0  0  0  0  0  0  0  0  0  0
   -2.9036  -20.7812   25.9507 H   0  0  0  0  0  0  0  0  0  0  0  0
   -5.2182  -23.9276   24.9380 H   0  0  0  0  0  0  0  0  0  0  0  0
   -4.5800  -23.0287   22.6708 H   0  0  0  0  0  0  0  0  0  0  0  0
    1.2440  -17.6965   21.0689 H   0  0  0  0  0  0  0  0  0  0  0  0
    1.1569  -14.0709   17.5251 H   0  0  0  0  0  0  0  0  0  0  0  0
    2.5728  -11.6507   18.3133 H   0  0  0  0  0  0  0  0  0  0  0  0
    3.6271  -10.5671   16.2954 H   0  0  0  0  0  0  0  0  0  0  0  0
    5.0171   -9.4314   18.4566 H   0  0  0  0  0  0  0  0  0  0  0  0
    4.7757   -8.1776   18.3846 H   0  0  0  0  0  0  0  0  0  0  0  0
    2.2968   -8.3260   17.2649 H   0  0  0  0  0  0  0  0  0  0  0  0
    1.9224   -9.0906   18.7469 H   0  0  0  0  0  0  0  0  0  0  0  0
    4.3037  -14.6961   18.3341 H   0  0  0  0  0  0  0  0  0  0  0  0
  1  2  1  0
  2  3  1  0
  3  4  1  0
  4  5  1  0
  5  6  1  0
  6  7  2  0
  6  8  1  0
  8  9  1  0
  9 10  2  0
 10 11  1  0
 11 12  1  0
  2 13  1  0
 13 14  1  0
 14 15  2  0
 14 16  1  0
 16 17  2  0
 17 18  1  0
 18 19  2  0
 19 20  1  0
 20 21  1  0
 21 22  1  0
 22 23  1  0
 20 24  2  0
 12  8  2  0
 24 16  1  0
 23 21  1  0
  1 25  1  0
  1 26  1  0
  1 27  1  0
  2 28  1  0
  3 29  1  0
  3 30  1  0
  4 31  1  0
  4 32  1  0
  5 33  1  0
  9 34  1  0
 11 35  1  0
 12 36  1  0
 13 37  1  0
 17 38  1  0
 18 39  1  0
 21 40  1  0
 22 41  1  0
 22 42  1  0
 23 43  1  0
 23 44  1  0
 24 45  1  0
M  END
>  <Energy>  (1568) 
1133.2387857701542

>  <compound_id>  (1568) 
15955

>  <target_id>  (1568) 
1

>  <reference_id>  (1568) 
60

>  <inspiration_ids>  (1568) 
[60, 123]

>  <energy_score>  (1568) 
1106.3349302379554

>  <distance_score>  (1568) 
12.892197507916084

>  <path>  (1568) 
/opt/xchem-fragalysis-2/maxwin/BulkDock/SCRATCH/511014/C15955-P60/C15955-P60.minimised.mol

>  <scratch_subdir>  (1568) 
/opt/xchem-fragalysis-2/maxwin/BulkDock/SCRATCH/511014/C15955-P60

>  <fragmenstein_runtime>  (1568) 
55.562225103378296

>  <fragmenstein_outcome>  (1568) 
too moved

>  <fragmenstein_mode>  (1568) 
expansion

>  <fragmenstein_error>  (1568) 


$$$$
C15955-P123
     RDKit          3D

 45 47  0  0  0  0  0  0  0  0999 V2000
   -3.2127  -19.3246   21.1806 C   0  0  0  0  0  0  0  0  0  0  0  0
   -2.1176  -19.5871   22.2291 C   0  0  0  0  0  0  0  0  0  0  0  0
   -2.9646  -20.7939   23.7431 C   0  0  0  0  0  0  0  0  0  0  0  0
   -4.2037  -21.4521   25.3098 C   0  0  0  0  0  0  0  0  0  0  0  0
   -5.6029  -22.6686   26.0802 N   0  0  0  0  0  0  0  0  0  0  0  0
   -7.0633  -22.3531   27.3007 C   0  0  0  0  0  0  0  0  0  0  0  0
   -7.0682  -21.2688   27.7235 O   0  0  0  0  0  0  0  0  0  0  0  0
   -8.6189  -23.2388   27.8994 C   0  0  0  0  0  0  0  0  0  0  0  0
  -10.0394  -22.6259   28.1581 C   0  0  0  0  0  0  0  0  0  0  0  0
  -11.0637  -23.4272   28.4637 N   0  0  0  0  0  0  0  0  0  0  0  0
  -10.4566  -24.5354   28.8112 N   0  0  0  0  0  0  0  0  0  0  0  0
   -9.1021  -24.4434   28.6828 C   0  0  0  0  0  0  0  0  0  0  0  0
   -0.5021  -18.5511   21.6175 N   0  0  0  0  0  0  0  0  0  0  0  0
   -0.3175  -16.9591   20.5714 C   0  0  0  0  0  0  0  0  0  0  0  0
   -1.3129  -16.4776   20.0906 O   0  0  0  0  0  0  0  0  0  0  0  0
    1.3006  -15.7781   20.1174 C   0  0  0  0  0  0  0  0  0  0  0  0
    1.9742  -15.2205   18.5536 C   0  0  0  0  0  0  0  0  0  0  0  0
    3.2018  -15.1645   17.8472 C   0  0  0  0  0  0  0  0  0  0  0  0
    4.1935  -14.3760   18.0932 N   0  0  0  0  0  0  0  0  0  0  0  0
    3.6984  -13.4351   18.8003 C   0  0  0  0  0  0  0  0  0  0  0  0
    3.3278  -11.7429   17.6716 C   0  0  0  0  0  0  0  0  0  0  0  0
    3.6017   -9.9379   17.4184 C   0  0  0  0  0  0  0  0  0  0  0  0
    2.4398  -10.0214   18.1038 C   0  0  0  0  0  0  0  0  0  0  0  0
    2.4895  -14.4282   19.9503 C   0  0  0  0  0  0  0  0  0  0  0  0
   -3.9017  -20.1733   21.1304 H   0  0  0  0  0  0  0  0  0  0  0  0
   -2.7726  -19.1816   20.1890 H   0  0  0  0  0  0  0  0  0  0  0  0
   -3.8005  -18.4350   21.4182 H   0  0  0  0  0  0  0  0  0  0  0  0
   -1.6055  -20.4877   21.8438 H   0  0  0  0  0  0  0  0  0  0  0  0
   -2.0384  -20.8279   24.3397 H   0  0  0  0  0  0  0  0  0  0  0  0
   -3.0246  -21.7214   23.1524 H   0  0  0  0  0  0  0  0  0  0  0  0
   -3.3957  -21.9469   25.8698 H   0  0  0  0  0  0  0  0  0  0  0  0
   -4.4281  -20.5183   25.8407 H   0  0  0  0  0  0  0  0  0  0  0  0
   -5.7146  -23.5991   25.6917 H   0  0  0  0  0  0  0  0  0  0  0  0
  -10.3009  -21.5825   28.0879 H   0  0  0  0  0  0  0  0  0  0  0  0
  -11.0023  -25.2753   29.2426 H   0  0  0  0  0  0  0  0  0  0  0  0
   -8.5536  -25.2682   29.1163 H   0  0  0  0  0  0  0  0  0  0  0  0
    0.4285  -18.8777   21.8786 H   0  0  0  0  0  0  0  0  0  0  0  0
    1.3850  -14.4562   17.9291 H   0  0  0  0  0  0  0  0  0  0  0  0
    3.0754  -15.5031   16.8357 H   0  0  0  0  0  0  0  0  0  0  0  0
    3.7812  -11.8860   16.6995 H   0  0  0  0  0  0  0  0  0  0  0  0
    4.3855   -9.3959   18.0115 H   0  0  0  0  0  0  0  0  0  0  0  0
    3.1277   -9.0837   16.9452 H   0  0  0  0  0  0  0  0  0  0  0  0
    1.5988   -9.4389   17.6765 H   0  0  0  0  0  0  0  0  0  0  0  0
    2.3258   -9.4073   18.9908 H   0  0  0  0  0  0  0  0  0  0  0  0
    2.8755  -14.0816   20.9361 H   0  0  0  0  0  0  0  0  0  0  0  0
  1  2  1  0
  2  3  1  0
  3  4  1  0
  4  5  1  0
  5  6  1  0
  6  7  2  0
  6  8  1  0
  8  9  1  0
  9 10  2  0
 10 11  1  0
 11 12  1  0
  2 13  1  0
 13 14  1  0
 14 15  2  0
 14 16  1  0
 16 17  2  0
 17 18  1  0
 18 19  2  0
 19 20  1  0
 20 21  1  0
 21 22  1  0
 22 23  1  0
 20 24  2  0
 12  8  2  0
 24 16  1  0
 23 21  1  0
  1 25  1  0
  1 26  1  0
  1 27  1  0
  2 28  1  0
  3 29  1  0
  3 30  1  0
  4 31  1  0
  4 32  1  0
  5 33  1  0
  9 34  1  0
 11 35  1  0
 12 36  1  0
 13 37  1  0
 17 38  1  0
 18 39  1  0
 21 40  1  0
 22 41  1  0
 22 42  1  0
 23 43  1  0
 23 44  1  0
 24 45  1  0
M  END
>  <Energy>  (1569) 
1564.4731737564375

>  <compound_id>  (1569) 
15955

>  <target_id>  (1569) 
1

>  <reference_id>  (1569) 
123

>  <inspiration_ids>  (1569) 
[60, 123]

>  <energy_score>  (1569) 
1537.5693182242285

>  <distance_score>  (1569) 
11.678892898757788

>  <path>  (1569) 
/opt/xchem-fragalysis-2/maxwin/BulkDock/SCRATCH/511014/C15955-P123/C15955-P123.minimised.mol

>  <scratch_subdir>  (1569) 
/opt/xchem-fragalysis-2/maxwin/BulkDock/SCRATCH/511014/C15955-P123

>  <fragmenstein_runtime>  (1569) 
37.02268981933594

>  <fragmenstein_outcome>  (1569) 
too moved

>  <fragmenstein_mode>  (1569) 
expansion

>  <fragmenstein_error>  (1569) 


$$$$
C15956-P60
     RDKit          3D

 45 47  0  0  0  0  0  0  0  0999 V2000
   -2.5163  -18.1768   18.8998 C   0  0  0  0  0  0  0  0  0  0  0  0
   -3.4159  -16.9714   18.4901 C   0  0  0  0  0  0  0  0  0  0  0  0
   -2.1213  -15.3857   18.2790 C   0  0  0  0  0  0  0  0  0  0  0  0
   -1.3940  -14.6115   16.6392 N   0  0  0  0  0  0  0  0  0  0  0  0
   -1.9729  -13.4248   17.1697 C   0  0  0  0  0  0  0  0  0  0  0  0
    0.4696  -14.3170   16.1989 C   0  0  0  0  0  0  0  0  0  0  0  0
    1.4686  -14.4683   16.8797 O   0  0  0  0  0  0  0  0  0  0  0  0
    0.9916  -13.8422   14.3198 C   0  0  0  0  0  0  0  0  0  0  0  0
    2.0713  -13.0089   13.9848 C   0  0  0  0  0  0  0  0  0  0  0  0
    2.5039  -12.5596   12.7401 C   0  0  0  0  0  0  0  0  0  0  0  0
    1.6985  -12.6220   11.7209 N   0  0  0  0  0  0  0  0  0  0  0  0
    0.4314  -12.9294   12.0713 C   0  0  0  0  0  0  0  0  0  0  0  0
   -0.5794  -11.9403   11.5075 C   0  0  0  0  0  0  0  0  0  0  0  0
   -0.1115  -10.7097   10.7350 C   0  0  0  0  0  0  0  0  0  0  0  0
   -0.5921  -10.5473   12.1388 C   0  0  0  0  0  0  0  0  0  0  0  0
    0.1028  -13.7408   13.2186 C   0  0  0  0  0  0  0  0  0  0  0  0
   -4.6174  -17.5959   19.1282 N   0  0  0  0  0  0  0  0  0  0  0  0
   -5.5291  -18.6103   18.6447 C   0  0  0  0  0  0  0  0  0  0  0  0
   -5.6023  -19.1486   17.5802 O   0  0  0  0  0  0  0  0  0  0  0  0
   -6.4257  -19.0684   19.7478 C   0  0  0  0  0  0  0  0  0  0  0  0
   -6.7524  -20.4104   20.1113 C   0  0  0  0  0  0  0  0  0  0  0  0
   -7.4380  -20.5076   21.2586 N   0  0  0  0  0  0  0  0  0  0  0  0
   -7.6083  -19.2324   21.6223 N   0  0  0  0  0  0  0  0  0  0  0  0
   -7.0653  -18.3442   20.7374 C   0  0  0  0  0  0  0  0  0  0  0  0
   -3.0388  -19.0899   19.2111 H   0  0  0  0  0  0  0  0  0  0  0  0
   -1.9038  -18.5320   18.0713 H   0  0  0  0  0  0  0  0  0  0  0  0
   -1.8948  -17.8314   19.7285 H   0  0  0  0  0  0  0  0  0  0  0  0
   -3.8546  -17.0411   17.4723 H   0  0  0  0  0  0  0  0  0  0  0  0
   -1.4483  -15.8165   19.0020 H   0  0  0  0  0  0  0  0  0  0  0  0
   -2.0234  -14.6804   19.0791 H   0  0  0  0  0  0  0  0  0  0  0  0
   -2.8878  -13.4726   16.6605 H   0  0  0  0  0  0  0  0  0  0  0  0
   -1.2920  -12.6297   17.3531 H   0  0  0  0  0  0  0  0  0  0  0  0
   -2.3200  -13.2640   18.1702 H   0  0  0  0  0  0  0  0  0  0  0  0
    2.6102  -12.4961   14.7432 H   0  0  0  0  0  0  0  0  0  0  0  0
    3.4344  -12.0212   12.6045 H   0  0  0  0  0  0  0  0  0  0  0  0
   -1.5350  -12.3570   11.2044 H   0  0  0  0  0  0  0  0  0  0  0  0
   -0.7474  -10.3547    9.9321 H   0  0  0  0  0  0  0  0  0  0  0  0
    0.9454  -10.5725   10.5375 H   0  0  0  0  0  0  0  0  0  0  0  0
   -1.5534  -10.0744   12.2980 H   0  0  0  0  0  0  0  0  0  0  0  0
    0.1487  -10.3069   12.8893 H   0  0  0  0  0  0  0  0  0  0  0  0
   -0.9359  -14.0144   13.3724 H   0  0  0  0  0  0  0  0  0  0  0  0
   -4.7926  -17.4379   20.0909 H   0  0  0  0  0  0  0  0  0  0  0  0
   -6.4672  -21.3186   19.5938 H   0  0  0  0  0  0  0  0  0  0  0  0
   -8.1056  -19.0326   22.4822 H   0  0  0  0  0  0  0  0  0  0  0  0
   -7.1589  -17.2875   20.9049 H   0  0  0  0  0  0  0  0  0  0  0  0
  1  2  1  0
  2  3  1  0
  3  4  1  0
  4  5  1  0
  4  6  1  0
  6  7  2  0
  6  8  1  0
  8  9  2  0
  9 10  1  0
 10 11  2  0
 11 12  1  0
 12 13  1  0
 13 14  1  0
 14 15  1  0
 12 16  2  0
  2 17  1  0
 17 18  1  0
 18 19  2  0
 18 20  1  0
 20 21  1  0
 21 22  2  0
 22 23  1  0
 23 24  1  0
 16  8  1  0
 24 20  2  0
 15 13  1  0
  1 25  1  0
  1 26  1  0
  1 27  1  0
  2 28  1  0
  3 29  1  0
  3 30  1  0
  5 31  1  0
  5 32  1  0
  5 33  1  0
  9 34  1  0
 10 35  1  0
 13 36  1  0
 14 37  1  0
 14 38  1  0
 15 39  1  0
 15 40  1  0
 16 41  1  0
 17 42  1  0
 21 43  1  0
 23 44  1  0
 24 45  1  0
M  END
>  <Energy>  (1570) 
505.69932850328456

>  <compound_id>  (1570) 
15956

>  <target_id>  (1570) 
1

>  <reference_id>  (1570) 
60

>  <inspiration_ids>  (1570) 
[60, 123]

>  <energy_score>  (1570) 
446.66185513053324

>  <distance_score>  (1570) 
15.467888841030003

>  <path>  (1570) 
/opt/xchem-fragalysis-2/maxwin/BulkDock/SCRATCH/511014/C15956-P60/C15956-P60.minimised.mol

>  <scratch_subdir>  (1570) 
/opt/xchem-fragalysis-2/maxwin/BulkDock/SCRATCH/511014/C15956-P60

>  <fragmenstein_runtime>  (1570) 
43.10056519508362

>  <fragmenstein_outcome>  (1570) 
too moved

>  <fragmenstein_mode>  (1570) 
expansion

>  <fragmenstein_error>  (1570) 


$$$$
C15956-P123
     RDKit          3D

 45 47  0  0  0  0  0  0  0  0999 V2000
   -2.0057  -20.9716   22.7641 C   0  0  0  0  0  0  0  0  0  0  0  0
   -1.0996  -19.4831   22.8153 C   0  0  0  0  0  0  0  0  0  0  0  0
   -1.1767  -18.0821   21.2740 C   0  0  0  0  0  0  0  0  0  0  0  0
   -0.2208  -16.6507   20.9855 N   0  0  0  0  0  0  0  0  0  0  0  0
   -1.7105  -16.0706   20.4392 C   0  0  0  0  0  0  0  0  0  0  0  0
    0.8318  -16.3106   20.0065 C   0  0  0  0  0  0  0  0  0  0  0  0
    1.0088  -17.1266   19.1840 O   0  0  0  0  0  0  0  0  0  0  0  0
    2.2819  -14.8083   19.8451 C   0  0  0  0  0  0  0  0  0  0  0  0
    2.9152  -14.7975   18.5104 C   0  0  0  0  0  0  0  0  0  0  0  0
    4.2819  -14.2701   18.2210 C   0  0  0  0  0  0  0  0  0  0  0  0
    5.1156  -13.3464   18.7231 N   0  0  0  0  0  0  0  0  0  0  0  0
    4.7552  -12.9265   19.9346 C   0  0  0  0  0  0  0  0  0  0  0  0
    5.9185  -11.9218   20.4299 C   0  0  0  0  0  0  0  0  0  0  0  0
    6.7790  -11.1704   19.3863 C   0  0  0  0  0  0  0  0  0  0  0  0
    7.4003  -12.2303   20.2176 C   0  0  0  0  0  0  0  0  0  0  0  0
    3.3614  -13.5614   20.6482 C   0  0  0  0  0  0  0  0  0  0  0  0
   -1.1211  -19.7516   24.5438 N   0  0  0  0  0  0  0  0  0  0  0  0
   -0.4349  -20.7222   25.3554 C   0  0  0  0  0  0  0  0  0  0  0  0
    0.3886  -21.5374   25.0661 O   0  0  0  0  0  0  0  0  0  0  0  0
   -0.9723  -20.7055   26.7516 C   0  0  0  0  0  0  0  0  0  0  0  0
   -2.2939  -20.3808   27.2114 C   0  0  0  0  0  0  0  0  0  0  0  0
   -2.5143  -20.6889   28.4924 N   0  0  0  0  0  0  0  0  0  0  0  0
   -1.3591  -21.2536   28.8730 N   0  0  0  0  0  0  0  0  0  0  0  0
   -0.4223  -21.2958   27.8763 C   0  0  0  0  0  0  0  0  0  0  0  0
   -2.7623  -21.0159   23.5592 H   0  0  0  0  0  0  0  0  0  0  0  0
   -1.3193  -21.8022   22.9792 H   0  0  0  0  0  0  0  0  0  0  0  0
   -2.5369  -21.2076   21.8347 H   0  0  0  0  0  0  0  0  0  0  0  0
   -0.0425  -19.5740   22.9796 H   0  0  0  0  0  0  0  0  0  0  0  0
   -1.6714  -18.3839   20.3256 H   0  0  0  0  0  0  0  0  0  0  0  0
   -0.2090  -18.4958   20.9988 H   0  0  0  0  0  0  0  0  0  0  0  0
   -2.5741  -16.7501   20.3163 H   0  0  0  0  0  0  0  0  0  0  0  0
   -1.5472  -15.8660   19.3807 H   0  0  0  0  0  0  0  0  0  0  0  0
   -1.9928  -15.0654   20.7620 H   0  0  0  0  0  0  0  0  0  0  0  0
    2.6511  -15.4605   17.7275 H   0  0  0  0  0  0  0  0  0  0  0  0
    4.8959  -14.9833   17.6756 H   0  0  0  0  0  0  0  0  0  0  0  0
    5.6607  -11.2632   21.2409 H   0  0  0  0  0  0  0  0  0  0  0  0
    6.6008  -11.3732   18.3356 H   0  0  0  0  0  0  0  0  0  0  0  0
    7.0409  -10.1400   19.5875 H   0  0  0  0  0  0  0  0  0  0  0  0
    7.6737  -13.1462   19.7066 H   0  0  0  0  0  0  0  0  0  0  0  0
    8.1022  -11.9180   20.9795 H   0  0  0  0  0  0  0  0  0  0  0  0
    3.3276  -13.2603   21.6759 H   0  0  0  0  0  0  0  0  0  0  0  0
   -1.8138  -19.2817   25.1117 H   0  0  0  0  0  0  0  0  0  0  0  0
   -3.1251  -19.9775   26.6475 H   0  0  0  0  0  0  0  0  0  0  0  0
   -1.2796  -21.6010   29.8237 H   0  0  0  0  0  0  0  0  0  0  0  0
    0.5338  -21.7778   28.0283 H   0  0  0  0  0  0  0  0  0  0  0  0
  1  2  1  0
  2  3  1  0
  3  4  1  0
  4  5  1  0
  4  6  1  0
  6  7  2  0
  6  8  1  0
  8  9  2  0
  9 10  1  0
 10 11  2  0
 11 12  1  0
 12 13  1  0
 13 14  1  0
 14 15  1  0
 12 16  2  0
  2 17  1  0
 17 18  1  0
 18 19  2  0
 18 20  1  0
 20 21  1  0
 21 22  2  0
 22 23  1  0
 23 24  1  0
 16  8  1  0
 24 20  2  0
 15 13  1  0
  1 25  1  0
  1 26  1  0
  1 27  1  0
  2 28  1  0
  3 29  1  0
  3 30  1  0
  5 31  1  0
  5 32  1  0
  5 33  1  0
  9 34  1  0
 10 35  1  0
 13 36  1  0
 14 37  1  0
 14 38  1  0
 15 39  1  0
 15 40  1  0
 16 41  1  0
 17 42  1  0
 21 43  1  0
 23 44  1  0
 24 45  1  0
M  END
>  <Energy>  (1571) 
605.19493948831985

>  <compound_id>  (1571) 
15956

>  <target_id>  (1571) 
1

>  <reference_id>  (1571) 
123

>  <inspiration_ids>  (1571) 
[60, 123]

>  <energy_score>  (1571) 
546.157466115549

>  <distance_score>  (1571) 
12.799916502931053

>  <path>  (1571) 
/opt/xchem-fragalysis-2/maxwin/BulkDock/SCRATCH/511014/C15956-P123/C15956-P123.minimised.mol

>  <scratch_subdir>  (1571) 
/opt/xchem-fragalysis-2/maxwin/BulkDock/SCRATCH/511014/C15956-P123

>  <fragmenstein_runtime>  (1571) 
43.21673893928528

>  <fragmenstein_outcome>  (1571) 
too moved

>  <fragmenstein_mode>  (1571) 
expansion

>  <fragmenstein_error>  (1571) 


$$$$
C15958-P60
     RDKit          3D

 48 50  0  0  0  0  0  0  0  0999 V2000
   -6.2208  -19.3536   21.5599 C   0  0  0  0  0  0  0  0  0  0  0  0
   -6.3655  -17.8612   21.4068 N   0  0  0  0  0  0  0  0  0  0  0  0
   -5.2215  -18.0693   20.4331 C   0  0  0  0  0  0  0  0  0  0  0  0
   -4.7678  -16.6737   19.8983 C   0  0  0  0  0  0  0  0  0  0  0  0
   -3.4679  -16.1242   20.6589 C   0  0  0  0  0  0  0  0  0  0  0  0
   -2.3611  -14.5914   20.4805 N   0  0  0  0  0  0  0  0  0  0  0  0
   -1.9217  -15.4690   19.3945 C   0  0  0  0  0  0  0  0  0  0  0  0
   -2.7995  -12.8617   20.0979 C   0  0  0  0  0  0  0  0  0  0  0  0
   -3.9221  -12.4335   19.7987 O   0  0  0  0  0  0  0  0  0  0  0  0
   -1.8033  -11.7470   19.9728 C   0  0  0  0  0  0  0  0  0  0  0  0
   -2.0894  -11.2042   18.7008 C   0  0  0  0  0  0  0  0  0  0  0  0
   -2.3648   -9.8508   18.5441 C   0  0  0  0  0  0  0  0  0  0  0  0
   -2.1851   -8.9181   19.4889 N   0  0  0  0  0  0  0  0  0  0  0  0
   -1.7594   -9.3651   20.6843 C   0  0  0  0  0  0  0  0  0  0  0  0
   -1.4871   -8.3956   21.8033 C   0  0  0  0  0  0  0  0  0  0  0  0
   -0.7862   -8.5857   23.0911 C   0  0  0  0  0  0  0  0  0  0  0  0
   -0.0001   -8.0163   21.9945 C   0  0  0  0  0  0  0  0  0  0  0  0
   -1.6167  -10.7307   20.9065 C   0  0  0  0  0  0  0  0  0  0  0  0
   -7.7301  -17.5232   21.1790 C   0  0  0  0  0  0  0  0  0  0  0  0
   -8.3433  -17.4045   20.1547 O   0  0  0  0  0  0  0  0  0  0  0  0
   -8.4278  -17.2524   22.4382 C   0  0  0  0  0  0  0  0  0  0  0  0
   -9.8147  -17.3835   22.6869 C   0  0  0  0  0  0  0  0  0  0  0  0
  -10.1539  -17.0330   23.9303 N   0  0  0  0  0  0  0  0  0  0  0  0
   -9.0002  -16.5734   24.4512 N   0  0  0  0  0  0  0  0  0  0  0  0
   -7.9251  -16.7750   23.6345 C   0  0  0  0  0  0  0  0  0  0  0  0
   -5.3075  -19.6594   22.0904 H   0  0  0  0  0  0  0  0  0  0  0  0
   -6.4443  -19.9469   20.6593 H   0  0  0  0  0  0  0  0  0  0  0  0
   -7.0270  -19.6569   22.2416 H   0  0  0  0  0  0  0  0  0  0  0  0
   -5.5834  -18.5859   19.5285 H   0  0  0  0  0  0  0  0  0  0  0  0
   -4.3243  -18.5495   20.8510 H   0  0  0  0  0  0  0  0  0  0  0  0
   -5.6094  -15.9817   20.0057 H   0  0  0  0  0  0  0  0  0  0  0  0
   -4.5320  -16.8315   18.8399 H   0  0  0  0  0  0  0  0  0  0  0  0
   -3.9033  -16.1673   21.6578 H   0  0  0  0  0  0  0  0  0  0  0  0
   -2.8218  -17.0291   20.5732 H   0  0  0  0  0  0  0  0  0  0  0  0
   -1.1340  -16.0654   19.8774 H   0  0  0  0  0  0  0  0  0  0  0  0
   -1.5432  -14.8487   18.5958 H   0  0  0  0  0  0  0  0  0  0  0  0
   -2.4959  -16.2848   18.9657 H   0  0  0  0  0  0  0  0  0  0  0  0
   -2.3702  -11.8801   17.9002 H   0  0  0  0  0  0  0  0  0  0  0  0
   -2.8704   -9.5232   17.6469 H   0  0  0  0  0  0  0  0  0  0  0  0
   -2.3434   -7.7536   21.9946 H   0  0  0  0  0  0  0  0  0  0  0  0
   -1.0479   -7.9373   23.9163 H   0  0  0  0  0  0  0  0  0  0  0  0
   -0.5288   -9.5721   23.3254 H   0  0  0  0  0  0  0  0  0  0  0  0
    0.6947   -8.6398   21.4505 H   0  0  0  0  0  0  0  0  0  0  0  0
    0.3423   -7.0081   22.1609 H   0  0  0  0  0  0  0  0  0  0  0  0
   -1.0393  -10.9287   21.7784 H   0  0  0  0  0  0  0  0  0  0  0  0
  -10.5808  -17.7250   22.0000 H   0  0  0  0  0  0  0  0  0  0  0  0
   -9.0152  -16.1771   25.3861 H   0  0  0  0  0  0  0  0  0  0  0  0
   -6.9250  -16.5001   23.9368 H   0  0  0  0  0  0  0  0  0  0  0  0
  1  2  1  0
  2  3  1  0
  3  4  1  0
  4  5  1  0
  5  6  1  0
  6  7  1  0
  6  8  1  0
  8  9  2  0
  8 10  1  0
 10 11  2  0
 11 12  1  0
 12 13  2  0
 13 14  1  0
 14 15  1  0
 15 16  1  0
 16 17  1  0
 14 18  2  0
  2 19  1  0
 19 20  2  0
 19 21  1  0
 21 22  1  0
 22 23  2  0
 23 24  1  0
 24 25  1  0
 18 10  1  0
 25 21  2  0
 17 15  1  0
  1 26  1  0
  1 27  1  0
  1 28  1  0
  3 29  1  0
  3 30  1  0
  4 31  1  0
  4 32  1  0
  5 33  1  0
  5 34  1  0
  7 35  1  0
  7 36  1  0
  7 37  1  0
 11 38  1  0
 12 39  1  0
 15 40  1  0
 16 41  1  0
 16 42  1  0
 17 43  1  0
 17 44  1  0
 18 45  1  0
 22 46  1  0
 24 47  1  0
 25 48  1  0
M  END
